The Project Gutenberg eBook of Odysseia
    
This ebook is for the use of anyone anywhere in the United States and
most other parts of the world at no cost and with almost no restrictions
whatsoever. You may copy it, give it away or re-use it under the terms
of the Project Gutenberg License included with this ebook or online
at www.gutenberg.org. If you are not located in the United States,
you will have to check the laws of the country where you are located
before using this eBook.

Title: Odysseia


Author: Homer

Translator: Axel Gabriel Sjöström

Release date: February 19, 2017 [eBook #54200]

Language: Swedish



*** START OF THE PROJECT GUTENBERG EBOOK ODYSSEIA ***



Produced by Jari Koivisto and Tapio Riikonen








ODYSSEIA

Af

Homeros


Öfversatt och i Disputationer utgifven af

Axel Gabriel Sjöström





Helsingfors,
Tryckt hos J. C. Frenckell & Son,
1835-1840.






    Tis de ken allou akoisai; alis pantessin 'Omeros.

                                      _Theokritos_.




INNEHÅLL:

Lecturo.

Första Sången.

   v. 11-21.  ODYSSEUS, mot hvilken POSEIDAON var högeligen
              uppbraggt, qvarhölls på ön Ogygia, dit han
              efter ett skeppsbrott anländt, af nymfen KALYPSO,
              som förälskat sig i honom.
  v.  22-62.  Medan nu POSEIDAON gästade hos Aithioperna,
              anhåller ATHENE, vid gudarnas rådplägning,
              att ODYSSEUS måtte få återvända till sitt Ithaka,
              som han så mycket saknar.
  v. 63-305.  Såsnart ZEUS dertill samtyckt, råder ATHENE,
              att HERMES måtte ju förr desto hellre afsändas till
              KALYPSO, med befallning att låta drotten resa hem.
              Sjelf hastar hon till Ithaka och eggar, under
              skepnaden af MENTES, de Taphiers Konung,
              TELEMACHOS, att från palatset bortvisa sin
              moders skamlösa friare, samt sjelf resa till
              NESTOR och MENELAOS, för att söka underrättelse
              om fadren.
 v. 306-318.  Härefter aflägsnar sig ATHENE.
 v. 319-444.  Sedan nu TELEMACHOS för de kalasande friarena
              yttrat sin mening, och på EURYMACHOS' fråga:
              med hvilken fremling han samtalt? gifvit till
              svar, att det varit med MENTES, tillbringar han
              natten bekymmerfull på sin kammare, i beråd att
              följande dag verkställa gudinnans befallningar,

Andra Sången.

    v. 1-79.  Följande dag förkunnar TELEMACHOS, uti
              folkförsamlingen, sin moders friare, att de
              måste draga hädan.
  v. 80-128.  Derpå svarar ANTINOOS öfvermodigt.
 v. 129-207.  För TELEMACHOS, som derefter beklagar sig öfver
              friarenas oförrätt, och allvarligen yrkar hvad
              han yttrat, visa sig plötsligt tvenne örnar,
              af hvilket järtecken HALITHERSES spår olycka åt
              friarena; men EURYMACHOS skrattar åt spådomen,
              och säger trotsigt att friarene alldeles icke
              lemna huset, såframt icke PENELOPE antingen
              af TELEMACHOS till sin fader ätersändes, eller ock
              afgör med hvem af dem hon ärnar gifta sig.
 v. 208-223.  TELEMACHOS begär ett skepp för sin tillämnade resa.
 v. 224-241.  MENTOR förebrår _Ithakesierna_, att de ej ära
              ODYSSEUS' minne.
 v. 242-256.  LEIOKRITOS far häftigt ut mot MENTOR.
 v. 257-295.  Sedan folkförsamlingen är upplöst, lofvar ATHENE,
              under MENTORS skepnad, ett skepp ät TELEMACHOS,
              och ber honom skaffa sig reskost.
 v. 296-336.  När derefter TELEMACHOS återvänder till de kalasande
              friarena, mottages han med stickord.
 v. 337-381.  Bortgången från dessa, anmodar han EURYKLEIA,
              att skaffa reskosten i ordning, och affordrar
              henne en ed, att hon skall för hans moder dölja
              den tilltänkta resan.
 v. 382-434.  Sedan Athene af Noemon fått ett skepp, ledsagar
              hon, under MENTORS skepnad, till detsamma om
              qvällen TELEMACHOS, och de afresa till Pylos,
              utan PENELOPES vetskap.

Tredje Sången.

    v. 1-68.  Beledsagad af ATHENE, kommer TELEMACHOS
              till _Pylos_, der NESTOR jemte sina söner håller på
              som bäst att offra åt POSEIDAON; båda de resande
              mottagas gästvänligen.
  v. 69-101.  Åt NESTOR, som sedan frågar, hvilka och hvadan de
              fremmande äro, svarar TELEMACHOS, att han är
              ODYSSEUS' son, samt reser för att höra tidender
              om sin fader.
 v. 102-198.  Sedan NESTOR hållit ett låftal öfver ODYSSEUS,
              berättar han huruledes _Hellenerne_, efter en
              emellan AGAMEMNON och MENELAOS uppkommen oenighet,
              på särskilda vägar, sökt sina hembygder, och att
              han väl lyckligen hemkommit, men ej visste, hvad
              som händt de andra, vidare än att PHILOKTETES och
              IDOMENEUS likaledes funnit hemmet, och att den af
              AIGISTHOS mördade AGAMEMNON blifvit hämnad af sin
              son ORESTES.
 v. 199-252.  TELEMACHOS, uppmanad af NESTOR, att följa ORESTES'
              exempel, anser sig ej kunna våga företaget, och
              begär närmare underrättelser om AGAMEMNONS död.
 v. 253-328.  NESTOR gör honom till viljes, och råder honom att
              resa till MENELAOS i Sparta.
 v. 329-370.  Mot aftonen ämna ATHENE och TELEMACHOS återvända
              till galejan, men då NESTOR dertill nekar och bjuder
              dem stanna qvar hos sig öfver natten, förebär gudinnan
              en angelägen resa, och aflägsnar sig.
 v. 371-394.  NESTOR igenkänner henne.
 v. 395-497.  TELEMACHOS sofver med PEISISTRATOS; far dän följande
              morgon, landvägen, i hans sällskap; hvilar öfver
              natten i _Pherai_, och afreser tidigt vidare till
              MENELAOS.

Fjerde Sången.

    v. 1-67.  TELEMACHOS och PEISISTRATOS mottagas gästfritt
              af MENELAOS, hvilken som bäst firar sin sons
              och sin dotters bröllop.
  v. 68-154.  Då MENELAOS råkat föra talet på ODYSSEUS, tränga
              sig tårar fram ur TELEMACHOS' ögon. Emedan han
              har svårt att dem dölja, misstänker MENELAOS
              strax, hvem han är, och HELENA, som tillkommer,
              påstår fremlingen vara fullkomligen lik ODYSSEUS.
 v. 155-186.  PEISISTRATOS säger, att hon alldeles icke misstager
              sig, och vid ODYSSEUS minne och saknad utbrista
              alla i gråt.
 v. 187-264.  PEISISTRATOS beder, att lykta gråten, på hvilken
              HELENA, genom i bägrarna inkastade trollmedel,
              gör fullkomligt slut, och berättar derjemte,
              att hon igenkännt ODYSSEUS en gång vid tillfälle,
              då han, såsom spejare, vågat sig in i _Troia_.
 v. 265-289.  MENELAOS omtalar händelsen vid trähästen.
 v. 290-305.  Derefter förfoga sig alla till sofrummen
 v. 306-586.  och följande dagen, ombedd af TELEMACHOS, att få
              höra allt hvad MENELAOS visste om hans fader,
              förtäljer denne, hvad PROTEUS i Egypten bebådat
              om Hellenernes hemkomst, och om ODYSSEUS på
              KALYPSOS ö,
 v. 587-624.  beder derjemte TELEMACHOS, att dröja qvar några
              dagar, och erbjuder, på hans vägran, en gästskänk.
 v. 625-674.  Emellertid stämpla friarene försåt mot den
              hemvändande TELEMACHOS.
 v. 675-841.  Deras plan upptäcker MEDON för PENELOPE, som
              högeligen förskräckt beder ATHENE om hjelp,
              och tröstas i en nattlig syn.
 v. 842-847.  Emellertid lägga sig friarene i försåt.

Femte Sången.

    v. 1-20.  Då ATHENE i gudarnas rådsförsamling klagar
              öfver _Ithakesiernes_ otacksamhet mot ODYSSEUS,
              öfver hans qvarhållande på KALYPSOS ö, och
              det mot TELEMACHOS utställda försåtet,
   v. 21-42.  befaller ZEUS henne, att helbregda återföra
              ODYSSEUS till hemlandet, och HERMES att resa till
              KALYPSO, med tillsägelse om ODYSSEUS förlossning.
  v. 43-115.  HERMES förfogar sig alltså till _Ogygia_, mottages
              af nymfen med välvilja, och berättar sitt uppdrag,
 v. 110-144.  hvarefter KALYPSO väl klagar öfver gudarnes
              afundsjuka, men lofvar ändock att ej längre
              qvarhålla ODYSSEUS.
 v. 145-170.  HERMES aflägsnar sig, och KALYPSO bjuder ODYSSEUS,
              som sitter på hafsstranden, och täres af hemlängtan,
              att bygga en farkost; sjelf lofvar hon alla resans
              förnödenheter.
 v. 171-224.  Den kloke och varsame konungen affordrar henne
              en ed, att hon ej hemligen skall stämpla hans ofärd;
              hon aflägger eden, följer hem ODYSSEUS, och
              framställer förgäfves resans faror.
 v. 225-277.  Dagen derpå börjar ODYSSEUS byggnadsarbetet,
              hvilket han slutar på den fjerde, och afreser
              den femte dagen.
 v. 278-493.  Efter sjutton dagars segling, då ön Scherias
              berg ren synas, uppväcker den från _Aithioperna_
              hemvandande POSEIDAON en förskräcklig storm, ur
              hvilken ODYSSEUS räddas af LEUKOTHEA, som skänker
              honom sin hårbindel. ODYSSEUS öfvergifver
              farkosten, ankommer simmande, nästan utan sansning
              af trötthet, till land vid en flodmynning, och
              tillbringar der natten, efter omständigheterna.

Sjette Sången.

    v. 1-47.  Med afsigt att åt ODYSSEUS bereda välvilligt
              mottagande hos ALKINOOS, _Phaiekernes_ konung,
              erinrar ATHENE, i en dröm, dess dotter,
              NAUSIKAA, om klädtvätt.
  v. 48-109.  Sedan alltså, följande dagen, NAUSIKAA med sina
              tärnor åkit till flodstranden, och kläderna
              blifvit, i vanlig ordning, tvättade, roar hon sig,
              medan de torrka, med bollspel.
 v. 110-185.  Men då bollen, genom ATHENES föranstaltande,
              nedfallit i vattnet, och, vid tärnornas rop,
              ODYSSEUS, uppväckt ur sömnen, af NAUSIKAA begär,
              att hon må gifva honom kläder, och visa honom
              vägen till staden --;
 v. 186-250.  så villfar hon drottens begäran, och sänder
              honom en skrud. Sedan ODYSSEUS densamma påtagit,
              smyckas han af ATHENE med utmärkt skönhet, samt
              vederqvicker sig med mat och dryck.
 v. 251-331.  Derefter bjuder honom den hemvändande NAUSIKAA,
              att åtfölja sin vagn, tills de hunnit ATHENES lund,
              och att der qvarstanna, samt, såsnart hon kunde
              synas länd till sin faders boningar, begifva sig
              till desamma, och först helsa hennes moder.

Sjunde Sången.

    v. 1-36.  Efter NAUSIKAA begifver sig ODYSSEUS till
              staden, och möter på vägen ATHENE förklädd, samt
              beder henne att visa Sig kungaborgen.
  v. 37-239.  Dit beledsagad, och sedan han beundrat ALKINOOS'
              Palats och parker, nalkas han, bönfallande,
              drottningens knän, och undfägnas herrligen. Men
              när öfrige gästerna bortgått, igenkänner ARETE de
              kläder, ODYSSEUS bär, och spörjer, hvadan han
              kommer, samt af hvem han dem erhållit,
 v. 240-347.  ODYSSEUS berättar korteligen sin resas mödor och
              faror i hvarefter konungen lofvar honom skepp och
              kamrater till hemfärd, erinrande honom att gå till
              hvila,

Åttonde Sången.

    v. 1-40.  ALKlNOOS befaller utrusta ett skepp, och
              hembeledsaga ODYSSEUS.
   v. 41-93.  För de till gästbud kallade drottar sjunger
              emellertid DEMODOKOS om striden mellan ACHILLEUS
              och ODYSSEUS, för hvilken tårarne frambrista.
  v. 94-103.  Så snart ALKINOOS märker hans ängslan, uppmanar
              han de sina till kämpalekar, för att visa hvad
              Phaiekerne gitta i sådant afseende uträtta,
 v. 104-151.  När dessa slutats, inbjuder LAODAMAS, kongens son,
              ODYSSEUS, att äfven försöka sin lycka.
 v. 152-234.  Men då EURYALOS med otidighet bemöter hans
              ursägt, uppträder ODYSSEUS till täflan, besegrar
              Phaiekerna i diskoskastning, och utmanar dem,
              LAODAMAS undantagen, till allt slags täfling,
 v. 235-255.  Dervid blifva alle tyste, och ALKINOOS säger,
              att hans män endast förstå sig på kapplöpande,
              segling, dans och sång.
 v. 256-384.  Derefter dansa någre utvalde ynglingar, medan
              DEMODOKOS sjunger KYPRIS och ARES' kärlek.
 v. 385-531.  Sedan ODYSSEUS, af Phaiekerna med skänker
              behedrad, badat sig, utbrister han i tårar vid
              DEMODOKOS' sång, under måltiden, om _Troiska_
              hästen, och Troias förstöring.
 v. 532-586.  Då ALKINOOS detta märker, beder han ODYSSEUS säga,
              hvem han är, hvar ifrån han kommit, och hvarföre
              han utbrustit i tårar.

Nionde Sången.

   v.  1-38.  Sedan ODYSSEUS yppat sitt namn och fädernesland,
   v. 39-61.  omtalar han de vexlande öden och olyckor, för
              hvilka han med de sina, under hemresan från Troia,
              alltid varit utsatt. Till en början eröfrar han väl
              staden _Ismaros_, men besegras sedan af Kikonerna.
  v. 62-104.  Derefter drifves han af en vid _Maleia_ uppkommen
              storm till Lotophagerna.
 v. 105-230.  Från dem kommer han till Kykloperna, qvarlemnar de
              öfriga följeslagarena på en nära belägen ö, och beger
              sig åtföljd af endast tolf, till POLYPHEMOS.
 v. 231-566.  Denne uppslukar i tre mål sex af kamraterna, men
              ODYSSEUS utsticker Kyklopens enda öga
              och räddar sig med största lifsfara därifrån.

Tionde Sången.

    v. 1-33.  ODYSSEUS fortsätter berättelsen: hurusom han,
              anländ till ön _Aiolia_, af AIOLOS mottog alla
              vindarna, inneslutna i säck, med undantag af Vestan,
              som borde bringa honom hem till Ithaka.
   v. 34-76.  Men då hans reskamrater, under förmodan att finna
              dyrbarheter, öppnat säcken, drifves han af de
              utsluppna vindarna tillbaka till Aiolia, och affärdas
              onådigt af Väderguden.
  v. 77-274.  Dädan kommer han till _Laistrygonerna_, förlorar
              hos dem elfva skepp, men flyktar med det återstående
              till ön Aiaia, der KIRKE bor.
 v. 275-347.  ODYSSEUS, som af HERMES erhållit skyddsmedel mot
              KIRKES förtrollningar, frestas af henne till älskog,
              hvaråt han dock icke lemnar gehör, innan hon med
              ed lofvat återgifva hans snöpligt förvandlade
              kamrater mensklig skepnad.
 v. 348-550.  Efter ett årsvistelse på ön, begär han, och erhåller
              af KIRKE tillstånd att afresa hemåt, men underrättas
              derjemte, att han, enligt ödenas beslut, dessförinnan
              måste besöka underjorden, och rådfråga TEIRESIAS.
 v. 551-574.  Medan de andre skynda till skeppet, nedfaller
              ELPENOR från ett tak, och dör.

Elfte Sången.

    v. 1-20.  ODYSSEUS seglar med gynnande vind. Som han af KIRKE
              undfått, till _Kimmerierne_ och _Okeanos_.
   v. 21-50.  Efter fullbordadt offer infinna sig de aflidnes
              vålnader, hvilka ODYSSEUS dock vägrar att dricka
              af bloden, förrän han rådfrågat TEIRESIAS.
   v. 51-80.  Först framträder nu vålnaden af ELPENOR, anhållande
              om begrafning,
  v.  81-89.  sedan kommer ODYSSEUS' moder, ANTIKLEIA.
 v.  90-150.  Följer så samtalet med TEIRESIAS,
 v. 151-223.  och med besagde ANTIKLEIA.
 v. 224-328.  Enär hon sig aflägsnat, framträda flera heroïnor, den
              ena efter den andra.
 v. 329-383.  (Härvid afbryter ODYSSEUS berättelsen, men fortsätter
              strax åter, ombedd af ALKINOOS.)
 v. 384-463.  Vidare följer samtalet med AGAMEMNONS,
 v. 464-539.  och med ACHILLEUS' vålnad.
 v. 540-566.  Förgäfves tilltalar ODYSSEUS Telamoniern AIAS.
 v. 567-625.  Derefter får han skåda MINOS med flera.
 v. 626-639.  Men då stora skaror af vålnader nalkas, rädes han
              att PERSEPHONEIA skall tillsända honom det Gorgeiska
              hufvudet, hvarföre han återvänder till sitt skepp,
              och afreser.

Tolfte Sången

   v.  1-15.  Sedan ODYSSEUS från Okeanos återkommit till
              ön Aiaia, begrafver han ELPENOR.
  v. 16-141.  KIRKE berättar honom den förestående resans
              farligheter,
 v. 142-165.  af hvilka han dock ej låter sig skrämmas,
              utan lossar galejan, muntrar upp kamraterna,
 v. 166-200.  och undslipper först lyckligen SERENERNA,
 v. 291-259.  samt räddas derefter från SKYLLA och CHARYBDIS
              med förlust likväl af sex kamrater.
 v. 260-298.  Förgäfves afråder han de öfriga att lägga till
              vid Solens ö,
 v. 294-323.  samt söker åtminstone intala dem, att skona solens
              boskapshjordar.

 v. 324-365.  Icke destomindre slakta desse, på EURYLOCHOS'
              inrådan, och plågade af hunger, några oxar,
              medan ODYSSEUS sofver.
 v. 366-390.  Då nu ZEUS, bevekt af Solgudens böner, lofvat hämnas,
 v. 391-399.  fortfara kamraterne likväl att äta af det heliga köttet.
 v. 400-453.  Derpå anländer ODYSSEUS, efter en förskräcklig
              storm och skeppsbrott, hvarvid alle kamraterne
              drunkna, helt ensam, till ön Ogygia, der Kalypso bor.

Trettonde Sången.

   v. 1-125.  Ytterligare af _Phaiekerna_ med skänker
              ihågkommen, tager ODYSSEUS mot qvällen farväl af
              ALKINOOS och ARETE; stiger ombord å det för hans
              räkning utrustade skeppet, öfverväldigas af en
              stilla sömn och utsättes, efter hastigt fulländad
              resa, på _Ithakas_ strand.
 v. 126-187.  POSEIDAON förvandlar till sten, icke långt från
              _Scheria_, det återvändande skeppet; men Phaiekerne
              blidka honom med ett offer.
 v. 188-428.  Omsider vaknar ODYSSEUS; och då han skrämd och rådvill
              icke igenkänner fosterlandet, mötes han af gudinnan
              ATHENE, som först, under skepnaden af en ung herde,
              berättar honom, att denna ö är det djupt saknade
              Ithaka; men sedermera, i qvinnogestalt upptäcker
              hvem hon egentligen är; undangömmer i nymfernas
              grotta hans dyrbarheter; lär honom sättet att döda
              friarena, samt lofvar ändteligen återföra TELEMACHOS.
 v. 429-440.  Derefter, för att göra Odysseus desto meta
              oigenkännelig, ombildar hon honom alldeles,
              och höljer honom uti en tiggargubhes dåliga kläder.

Fjortonde Sången.

   v.  1-79.  Svinherden EUMAIOS mottager gästfritt sin,
              under tiggareskepnad fördolda, husbonde,
  v. 80-190.  hvilken förgäfves söker öfvertala honom, som
              klagar öfver friarenes oförrätter, och längtar
              efter sin älskade husbonde, att denne nånsin mer
              skall återkomma.
 v. 191-359.  Sedan ODYSSEUS hopdiktat en historie om sina
              underbara öden, berättar han för EUMAIOS hvad han
              derjemte erfarit om dess husbondes återkomst,
 v. 360-408.  samt söker öfvertyga den tvekande sålunda, att
              han betingar sig belöning, ifall han talat sanning,
              och underkastar sig döden, ifall han ljugit.
 v. 409-456.  EUMAIOS slaktar derefter ett gödsvin, offrar åt
              gudarna, och bjuder ODYSSEUS till qvällsvard.
 v. 457-522.  Denne lägger sig derpå till hvila med de öfriga herdarna,
 v. 523-533.  men EUMAIOS vandrar af till svinstallen.

Femtonde Sången.

   v. 1-129.  Af gudinnan ATHENE erinras TELEMACHOS om
              hemresa, undfägnas af MENELAOS och HELENA med
              skänker,
 v. 130-181.  samt skiljes, under godtjärtecken, ifrån dem,
 v. 182-188.  Natten tillbringar han i _Pherai_ hos DIOKLES.
 v. 189-299.  Följande dag, utan att uppehålla sig med besök i
              _Pylos_, tar han farväl af PEISISTRATOS, och går
              ombord på sitt skepp. I detsamma infinner sig den
              _Argeiske_ siarn THEOKLYMENOS, som begär, och
              erhåller tillstånd att göra ressällskap,
 v. 300-491.  Emellertid berättar derhemma EUMAIOS sina
              fordna öden för ODYSSEUS,
 v. 492-545.  TELEMACHOS landar vid en från staden aflägsen
              kust på Ithaka, och affärdar THEOKLYMENOS till EURYMACHOS,
 v. 516-536.  Derefter resa de öfrige sjöledes till staden,
              men TELEMACHOS vandrar af tillfots, för att uppsöka
              EUMAIOS.

Sextonde Sången.

   v.  1-56.  TELEMACHOS mottages af EUMAIOS med mycken
              glädje och välvilja,
  v. 57-129.  och samtalar med ODYSSEUS, i hvilken han likväl
              ej igenkänner sin fader.
 v. 130-153.  Derefter beder han EUMAIOS gå till PENELOPE,
              och berätta om sin hemkomst.
 v. 154-171.  När herden aflägsnat sig, synes PALLAS för
              ODYSSEUS med befallning, att han, under EUMAIOS'
              bortavaro, må upptäcka sig för TELEMACHOS.
 v. 172-320.  Detta sker; och far och son rådpläga, angående
              friarnes nedgörande.
 v. 321-405.  Emellertid anlända TELEMACHOS' följeslagare till
              staden; hvilket högeligen förvånar de försåtliga
              friarena, som uppgöra andra planer för hans
              mördande, motsagda likväl af AMPHINOMOS.
 v. 406-447.  PENELOPE förebrår friarena deras anslag
              emot TELEMACHOS och tröstas af EURYMACHOS,
 v. 448-481.  EUMAIOS återkommer, utan att ännu igenkänna sin
              konung och herre, ODYSSEUS.

Sjuttonde Sången.

   v.  1-60.  Följande morgon går TELEMACHOS till staden
              samt helsar EURYKLEIA och sin moder, hvilken
              gör löften åt gudarna.
  v. 61-100.  Derefter önska de falske friarne honom lyda till
              sin återkomst, och han emottager THEOKLYMENOS
              beledsagad af PEIRAIOS.
 v. 101-253.  Emellertid, och under det friarne gästa, ledsagas
              ODYSSEUS till staden af EUMAIOS.
 v. 254-327.  Den trogne hunden ARGOS.
 v. 328-504.  Friarnes, isynnerhet ANTINOOS' skändliga uppförande
              mot den förmente tiggaren.
 v. 505-606.  EUMAIOS återvänder till stallen.

Adertonde Sången.

   v. 1-122.  ODYSSEUS besegrar i knytnäfvestrid tiggaren
              IROS, som öfverfallit honom med stickord.
 v. 123-156.  Han varnar AMPHINOMOS för öfvermod, och för
              ODYSSEUS' hämd, ifall drotten återvänder.
 v. 157-302.  PENELOPE tilltalar sin son och sina friare,
              hvilka, tjuste af hennes skönhet, tillsända
              henne skänker.
 v. 303-403.  Emellertid skymfas ODYSSEUS af tärnan MELANTHO,
              och af friarne, bland hvilka EURYMACHOS kastar
              efter honom med sin fotpall.
 v. 404-427.  På TELEMACHOS' erinran, gå friarne till sängs.

Nittonde Sången.

    v. 1-52.  Sedan vapnen blifvit ur salen bortburna i ett
              annat rum, stannar ODYSSEUS ensam qvar, ock bjuder
              sin son gå till hvila.
   v. 53-95.  Återigen skymfad af tärnan MELANTHO, bannar han
              henne strängeligen.
  v. 96-360.  PENELOPE samtalar med ODYSSEUS,
 v. 361-475.  hvilken i badet, igenkännes af EURYKLEJA.
 v. 476-507.  ODYSSEUS beder henne vara tyst med upptäckten.
 v. 508-581.  PENELOPE berättar sin dröm för Odysseus, med
              tillkännagifvande, att hon ärnade till morgondagen
              utsätta en täflingsstrid för friarena, samt äkta
              den som kunde spänna ODYSSEUS' båge, och skjuta
              med pilen genom ögat på tolf efter hvaran
              uppställda yxar.
 v. 582-604.  Sedan ODYSSEUS gillat förslaget, går PENELOPE
              bort till hvila.

Tjugonde Sången,

    v. 1-21.  ODYSSEUS, som hvilar i försalen, bemärker
              tärnornas fräckhet.
   v. 22-57.  ATHENE tröstar honom.
  v. 58-121.  Om morgon bittida väckt af PENELOPE klagan, begär han,
              och erhåller af ZEUS ett lyckosamt järtecken.
 v. 122-161.  Sedan TELEMACHOS tillspott EURYKLEIA, om hon väl
              undfägnat fremlingen, begifver han sig till torgs,
              hvaremot hon tillreder måltid åt friarena.
 v. 162-240.  Tillkomma EUMAIOS, MELANTHIOS och PHILOITIOS.
 v. 241-246.  Friarenes plan att dräpa TELEMACHOS tillintetgöres.
 V. 247-320.  Uppträdet med KTESIPPOS.
 v. 321-372.  Sedan AGELAOS sökt förmå TELEMACHOS att, till hans
              fördel, inverka på sin moder, uppskrämmas friarene
              genom olycksförebud, den THEOKLYMENOS förklarar.
 v. 373-394.  TELEMACHOS gäckas af friarena, men återhåller sin
              harm, och afvaktar den snart inträffande hämden.

Tjugondeförsta Sången.

    v. 1-95.  PENELOPEIA föreslår samtliga friarne en täflingsstrid,
              samt lofvar äkta den, som gitter spänna ODYSSEUS' båge,
              och skjuta med pilen genom ögat på tolf efter hvaran
              uppställda yxar.
  v. 96-139.  TELEMACHOS sjelf skulle, vid fjerde försöket, lyckats
              att spänna bågen, om ej ODYSSEUS det förhindrat.
 v. 140-244.  Men då samtlige friarne ansträngt sig förgäfves, går
              ODYSSEUS ut med EUMAIOS och koherden, upptäcker hvem
              han är, anordnar om hvad som bör göras och utlofvar
              belöning.
 v. 245-269.  Då nu äfven EURYMACHOS gjort ett fruktlöst försök,
              föreslår Antinoos uppskof till morgondagen.
 v. 270-310.  ODYSSEUS' begäran, ätt äfven få pröfva sin lycka,
              afslås högmodigt af samme ANTINOOS.
 v. 311-430.  Men genom PENELOPES och TELEMACHOS' bemedling,
              öfverlemnas dock bågen åt ODYSSEUS; dörrarne stängas;
              ODYSSEUS spänner sin båge och skjuter pilen genom ögat
              på alla yxarna.
 v. 431-434.  Härefter rusta sig fader och son till friarnes nederlag.

Tjugondeandra Sången.

    v. 1-41.  Sedan ODYSSEUS för friarne röjt sig, och hotat
              att hämnas lidna oförrätter, börjas nederlagen
              och den första pilen träffar ANTINOOS.
   v. 42-88.  Derefter dödas EURYMACHOS.
  v. 89-152.  TELEMACHOS, som dödat AMPHINOMOS, afhemtar vapen
              från ett annat rum, hvars dörr han ej väl låser;
              MELANTHIOS passar alltså på tillfället, och bringar
              äfven åt friarne vapen.
 v. 153-200.  Gripen af de trogna tjenarena, blir han hängd.
 v. 201-240.  ATHENE manar ODYSSEUS till modig strid.
 v. 241-390.  Nu nedgöras friarene alla; endast PHEMIOS och
              MEDON skonas.
 v. 391-456.  ODYSSEUS bjuder att liken skola utbäras.
 v. 457-477.  Tärnornas och MELANTHIOS' straff.
 v. 478-501.  De redligt sinnades goda mottagning.

Tjugondetredje Sången.

    v. 1-68.  EURYKLEIA berättar för PENELOPE, att hennes make
              hemkommit, och dödat friarena; hvilket hon icke tror.
   v. 69-95.  Omsider nedstiger hon dock i matsalen, och tager
              plats midtemot ODYSSEUS, hvilken hon ej vågar tilltala.
  v. 96-116.  TELEMACHOS ogillar, men ODYSSEUS ursäktar sådant
              förfarande --,
 v. 117-151   samt befaller, att, till undvikande af otidigt
              kringspridt rykte om friarnes nederlag, anställa
              glada danser i palatset.
 v. 152-230.  Tvättad, omklädd och af Pallas förskönad, igengännes
              ODYSSEUS ändtligen af sin gemål,
 v. 231-343.  med hvilken han samtalar om fordna och kommande tider.
 v. 344-372.  Följande dag vandrar han till sin fader, LAERTES.

Tjugondefjerde Sången.

    v. 1-97.  Till underjorden beledsagar HERMES friarenes skuggor,
              som mötas, bland andra, af ACHILLEUS och AGAMEMNON.
  v. 98-203.  Uppå tillfrågan berättar AMPHIMEDON om det fruktlösa
              frieriet till PENELOPE och det af ODYSSEUS utförda
              nederlaget.
 v. 204-411.  Emellertid råkar ODYSSEUS sin fader, och öfvertygar
              honom, genom säkra tecken, att han är den rätte sonen.
              Den af glädje nästan sanslöse LAERTES vederqvickes
              af Athene, och inbjudes till måltid.
 v. 412-470.  Fastän afrådde af MEDON och HALITHERSES, rusta sig
              friarenes anförvandter till hämd.
 v. 471-547.  Men på ATHENE's inrådan göres ända på striden,
              och formelig fred afslutas.




LECTURO.


Vergente ad finem anno 1818 adgrediebamur, Dissertationibus Academicis,
editionem in publicum dare Homericae _Odysseae_, Graece et Svethice,
notis instructam brevissimis, et quidem in forma quarta; continuabamus
opusculum, nobismet certe gratum, neque Commitionibus non acceptum,
interpositis nonnullis quoque aliis studiorum deliciis, usque ad annum
tristissimi incendii 1827, memori quem mente dolemus, omnia vastantis
et vorantis. Quiescebant dein amoense curae, donec _Odysseam_ nostram
de novo liceret adoriri. -- Refiugimus vero jam antea edita, formam
mutamus, Graecum mittimus certum et notulas. Prior metaphrasis
extendebatur ad Quartae Rhapsodiae versum 319; quae dein sequentur sunt
posterioris curae, quam utque in antecedentibus desiderari velemus.
Absolvetur Odysseae haec nova editio per Tomos Quatuor.




FÖRSTA SÅNGEN.


    Sångmö, sjung mig den man, mångvandraren, hvilken så länge
    Vankade, sen han Troia förstört, den heliga staden;
    Många menniskors bygder besåg han och lynnen sig lärde,
    Många smärtor jemväl utstod i sitt hjerta, på hafvet,
    Äflande för sitt lif, och för reskamraternas hemkomst.      5
    Reskamraterna dock ej frälste den fiksame så ens;
    Ty med sitt öfverdåd sig sjelfva beredde de döden,
    Dårlige, hvilka Hyperion's sons, Eelios' oxar
    Åto; men hemkomstdagen för dem ock derför han borttog.
    Sångmö, sjung nu för oss, Zeus' dotter, något af detta!    10

    Voro så alle de andre, som undgått bråda förderfvet,
    Hemma nuren, sen kriget och sjön dem lyckats att undgå;
    Men vår hjelte allena, i saknad af maka och hemkomst,
    Höll den vördiga nymfen, gudinnors gudinna, Kalypso,
    Giljande sig till gemål, än qvar i de håliga grottor.      15
    Men då nu, vid omvälfvande år, den tiden var inne,
    Hvilken åt honom bestämmts af gudar, att lända tillbaka
    Hem till Ithaka, der ej skulle han mödorna undgått,
    Fast hos vännerna stadd; men gudar sig ömkade alle,
    Utom Poseidaon, som var förskräckligen uppbragt            20
    Mot gudmaken Odysseus, förrän han hunne sin hemjord.

    Till Aithiopernas land var han faren, det fjerran belägna,
    (Hän till de Aithiopeer, som tvedelt, ytterst bland menskor,
    Bo, der Hyperion sjunker en del, en ann, der han uppgår.)
    Att mottaga hos dem hekatomben af tjurer och gumsar.       25
    Der han till måltids satt, sig fägnande, medan de andre
    Hade uti Zeus' salar. Olympierns, samlat sig alle.
    Då begynte att orda de dödliges fader och gudars.
    Ty i sälen han sig påminnte den bålde Aigisthos,
    Som Agamemnonides, vidtfrejdad Orestes, ihjelslog.         30
    Honom mindes han nu, och ibland odödliga talte.

    Hm! hur de dödlige dock andraga mot gudarna klagmål:
    Ty att det onda från oss här flyter, de yrka, men sjelfve,
    Genom sitt öfverdåd de hafva, mot ödet, bekymmer.
    Äktande så, mot ödet, Aigisthos äfven Atreidens            35
    Vigda gemål, och konungen sjelf, hemländande, dräpte,
    Vetande brådt förderf; vi bebådade honom på förhand,
    Sändande Hermeias, välspejande Argosdödarn,
    Att ej konungen mörda, att ej hans maka begära.
    Ty af Orestes hämd skall vederfaras Atreiden,              40
    När fullvuxen han blir och längtar till fädernelandet.
    Ordade så Hermeias, men ej Aigisthos bevekte,
    Fast han menade väl; nu allt han rikligen umgällt.

    Honom svarte derpå klarögda gudinnan Athene:
    O, du, vår alles far, Kronides, af konungar ypperst,       45
    Denne, minsann, förtjente den död, han dukade under;
    Må desslikes en annan förgås, ho, sådant bedrifver.
    Men mitt hjerta lågar af sorg för den vise Odysseus,
    Olycksmannen, som lider betryck, från vännerna fjerran,
    På kringfluten en ö, der hafvets nafle befinnes;           50
    Skogbevuxen är ön; en gudinna i salarna vistas,
    Dotter utaf allkunnige Atlas, som djupen i hafvet
    Samtliga vet öfverallt, samt sjelf de höga kolonner
    Uppbär, som från hvaran åtskilja jorden och himlen;
    Dottren af denne hos sig qvarhåller den sörjande ömkling.  55
    Städs derjemte med söta och smilande orden hon smeker
    Honom, att han må glömma sitt Ithaka; tvertom Odysseus,
    Längtande få helst skåda den rök, som hvirflar åt höjden
    I hans fäderneland, tillönskar sig döden. Ej nu ens
    Böjs ditt sinne, Olympier, än? Har icke Odysseus,          60
    Vid Argeiernas skepp dig fägnat med gärden af offer
    Fordom i Troers rymliga land? Hvi vredgas du så, Zeus?

    Henne till svar genmälte den molnhopskockande gud Zeus:
    Dotter min, hvad för ett ord dig flydde ur tändernas stängsel?
    Skulle väl jag ha nånsin förglömmt den ädle Odysseus,      65
    Hvilken i klokskap vinner de dödlige, vinner i offer
    Till odödliga gudar, som bo i himmelens rymder?
    Men nu Poseidaon, jordfamnarn, är städse beständigt
    Vred för Kyklopens skull, som drotten beröfvade ögat,
    För Polyphemos, den trottsige best, hvars kraft är den största  70
    Bland Kyklopernas flock. Hans mor är nymfen Thoosa,
    Dotter till Phorkyn, kong i det ofruktbärande hafvet,
    Med Poseidaon älskogförent i de håliga grottor.
    Från den tiden Poseidaon, jordskakarn, ej dödar,
    Men dock jagar omkring från fädernejorden Odysseus,        75
    Nu då välan, må vi här allsamtligen öfver hans hemkomst
    Rådslå, huru den sker. Poseidaon ock sin förbittring
    Låter fara; han icke förmår, då ej gudarne medge,
    Mot odödliga alla sin tvist utföra allena.

    Honom svarte derpå klarögda gudinnan Athene:               80
    O, du vår alles far, Kronides, af konungar ypperst,
    Om nu detta i sanning är kärt för de saliga gudar.
    Att till sitt eget hem får lända den vise Odysseus,
    Sändom då Hermeias, budbäraren, Argosdödarn,
    Han till Ogygias ö, att han måtte så fort som är möjligt   85
    Vårt oryggliga råd skönlockiga nymfen förkunnas
    Hemkomst åt tålsinnta Odysseus, att hem han må komma.
    Jag deremot mig begifver till Ithaka, att jag må sonen
    Mer anmana, och mod ingifva åt honom i sinnet,
    Att han till rådslag kalle de hufvudfagre Achaier,         90
    Och förvise den friaretropp, som hittills beständigt
    Slaktar hans får och jemväl fotsläpande hornade korna.
    Vill ock sända till Sparta, och till sandmarkiga Pylos,
    Att utforska, om något försports om fadrens igenkomst,
    Samt sig ståteligt namn bland menskor derjemte förvärfva,  95

    Talande så, vid föttren hon bandt de kostliga gyllne
    Himmelska skor, som henne båd' utöfver hafvet och äfven
    Den omätliga jord hänburo, i kapp med en vindflägt.
    Tog sin väldiga lans, med vättjade kopparn beslagen,
    Tung och kraftig och stor, med hvilken hon hjeltarnes leder  100
    Tuktar, på hvilka som helst hon är vred, högborna gudinnan.
    Sedan i hastande fart nedsteg hon från himmelens klinter,
    Stod så hos Ithakas folk, i farstun strax hos Odysseus,
    På gårdströsklen, och hade i hand kastspjutet af koppar,
    Tagande skepnad af Taphiers drott, gästfremlingen Mentes.  105
    Der anträffade hon de trottsiga friarne, hvilka
    Utanför dörrarna nu förlustade sinnet med terning,
    Sittande alla på hudar af nöt, dem sjelfve de slaktat.
    Men herolder åt dem och oförtrutne betjenter,
    Somlige blandade vatten med vin i kratererna samman,      110
    Somlige återigen med de pipiga svamparna borden
    Tvagde, och ställde dem fram, samt delade rikliga köttet.
    Henne af alla då först gudlike Telemachos märkte;
    Ty bland friarne satt han, i innersta hjertat bekymrad,
    Skådande fadren, den bålde, i tankarna, huru han, hemländ,  115
    Månde bland friarnes flock anställa 1 huset förskingring,
    Äran behålla för sig, och om egna besittningar råda.
    Tänkande så, bland friarne satt han, och märkte Athene,
    Gick så i farstun ut, och förgrymmade sig i sitt sinne,
    Att den fremmande stod vid dörrarna länge, och närmad,    120
    Högra handen han tryckte, och lansen af koppar emottog,
    Och tllltalade henne, ooh sade bevingade orden:

    Hell dig, fremling, af oss vänskapligt du helsas; men sedan,
    När du vid bordet är mätt, låt se, hvad dig göres behof af.

    Sade, och gick så fornt; ock följde nu Pallas Athene.     125
    Men då de inträdt båda uti det höga palatset,
    sen förde han fram, och stälde mot långa kolonnen,
    Inom det välombonade skrank, der äfven de andra
    Lansar stodo i mängd, tålmodige drotten Odysseus'.
    Henne han ledde till thronen, och bredde inunder en konstgjord  130
    Kostelig duk; var äfven en pall för fötterna anbraggt.
    Sjelf bredevid sin pyntade stol han ställde, från alla
    Friarne skild, att icke hans gäst, af stojet besvärad,
    Måtte vid maten ledas, i lag med de trottsiga bjessar,
    Och för att spörja jemväl om sin bortavarande fader.      135
    Men tvättvatten i skåln ihällde en tärna, och frambar
    I den sköna och gyllne, uppå tvättfatet af silfver,
    Vattnet, och dukade der bredevid det fejade bordet;
    Ärbara skafferskan hemtade bröd, och satte för gästen,
    Samt mång rätter dertill af allt hvad huset förmådde.     140
    Föreskärarn på fat upplade och hemtade allt slags
    Kött, och ställde åt dem bredevid de gyllene bägrar:
    Gick så en herold ofta också, ihällande vinet.
    Trottsige friarne trädde nu in; och alle på stunden
    Togo sig plats i ordenteligt skick på bänkar och stolar.  145
    Dem herolderne då tvättvatten på händerna hällde,
    Medan i korgarna bröd tjenstflickorna rågade ömnigt.
    Och till de färdiga rätter, som vankades, händren de räckte.
    Gossar derjemte också vinbålarna rikligen fyllde.
    Men lystmätet till dryck och till mat när ändtligen undfått  150
    Friareskaran, på annat begynte då hågen att leka,
    Både på sång och på dans, som äro kalasernas smycken.
    Lade nu derför herolden i Phemios' händer den granna
    Cittran, och han bland friarne sjöng, allenast af nödtvång.
    Således spelande stämde han upp, att herrligen sjunga.    155
    Men Telemachos talte då till klarögda Athene,
    Hållande hufvudet nära, att ej de andre det hörde:

    Fremling, så kär, säg, vredgas du väl för orden jag säger?
    Hågen leker för dessa på slikt, nå sånger och strängspel,
    Lätt, förty de en ann mans gods onäppste förtära,         160
    Hvilkens hvitnade ben kanhända förmultna i regnet,
    Vräkta i land, eller ock kringvältrar vågen i hafvet.
    Såge de honom en dag till Ithaka återkommen,
    Alle de önskade sig, att snabbare vara på föttren,
    Än förmögnare vara på kläder och gull helt säkert.        165
    Nu i sitt olycksöde han dog; oss finns ej en enda
    Tröst mer, fast ock någon af jordbeboende menskor
    Sade, att han skall komma; hans hemkomstdag är förlorad.
    Men du, välan mig detta förtälj, och noga berätta:
    Ho,, hvarifrån är du? hvar är dig stad och föräldrar?     170
    På hvad skepp är du hit ankommen och huru ha sjömän
    Dig till Ithaka bragt? hvad tro de sig vara för karlar?
    Ty jag förmodar ej alls, att du hit, fotgångare, kommit.
    Detta åt mig sannfärdigt berätta, att väl jag må veta,
    Om du för första gången är här, eller redan min faders    175
    Gästvän; ty mång männer förut påhelsade vårt hus,
    Andre också, förty umgängsam med menskor var denne.

    Honom talte då till klarögda gudinnan Athene:
    Sannerlig skall dig detta jag högst noggrannligen säga;
    Mentes, den insigtsfulle Anchialos' son jag mig skryter   180
    Vara, och konung derhos för de Taphiska roddarebussar.
    Just på stunden jag nu anlände med skepp och kamrater,
    Seglande öfver den mörknande sjön till fremmande menskor,
    Efter koppar till Temesa; jern, det blanka, jag medhar.
    Skepp mitt står nu derborta vid landet, fjerran från staden,  185
    Under det skogiga Neionberg, i hamnen vid Rheithros.
    Men gästvänner från fädernas tid vi skryte oss vara,
    Från urminnes, om ock du ginge och frågte den gamla
    Drotten Laertes; om hvilken de säga att aldrig till staden
    Mer han kommer, men ensam, af krämpor på landet besväras,  190
    Jemte en gammal gumma, som mat åt honom och dricka
    Frambär städs, när tröttheten hårdt angripit hans fötter,
    Mödsamt krälande kring på det välomansade vinberg.
    Nu hitkom jag; förty man sade att far din är hemstadd
    Ren, men gudarne honom ännu förhindra från hemkomst.      195
    Ty helt säkert ej dött på vår jord den ädle Odysseus,
    Utan, lefvande än, qvarhålls han på villande hafvet,
    Uppå en kringsköljd ö, af elaka männer och vilda
    Hindrad, hvilka -- ho vet? -- ovilliga drotten behålla.
    Men nu skall jag dig spå sannfärdligen, såsom i sinnet    200
    Mig odödlige lägga, och, såsom jag menar, det händer,
    Fast jag ej spåman är, och ej säkert förstår mig på fåglar.
    Allsej länge numera från älskade fädernejorden
    Blir han borta, om ock jernfjettrar betvingade honom;
    Ty månghittig är han, och tänker väl ut, hur han hemfar.  205
    Men du, välan, mig detta förtälj, och noga berätta,
    Om du, så stor en karl, är son af sjelfste Odysseus:
    Ty du är märkligen lik, till de vackra ögon och hufvut'
    Honom; såhär med hvaran umgingos vi många gånger,
    Förrn till Troia han seglade bort, dit äfven de andre     210
    Ypperste män från Argos på hålkade skeppena foro.
    Sen har Odysseus aldrig jag sett, och mig han ej heller.

    Henne Telemachos nu, den förståndige, svarte, och sade:
    Sannerlig, fremling, för dig högst noga jag ärnar berätta.
    Mor min yrkar väl, att jag är hans; mellertid jag ej saken  215
    Känner; ty troligen ingen ännu sjelf vetat sin härkomst.
    O, att jag vore likväl en son till någon af rika
    Männer, dem ålderdomen vid egna besittningar träffat.
    Nu deremot den som vardt osällast bland dödliga menskor,
    Honom de kalla min far: det länder till svar på din fråga.  220

    Honom talte då till klarögda gudinnan Athene:
    Visst ej gudarne hafva din slägt namnlös för en framtid
    Gjort; ty sådan en man framfödde dig Penelopeia.
    Men du, välan, mig detta förtälj och noga berätta,
    Hvad för gelag, hvad hop är dethär? hvad nödgar dig härtill?  225
    Festmål, eller ett bröllop? Förty det är väl ej bunklag.
    Så storståtligen synas de mig, och utöfver höfvan
    Gästa i huset; en man helt visst slikt skulle förtryta,
    Såge han skamlösheten, och kloktänkt komme dem öfver.

    Henne Telemachos nu, den förståndige, svarte, och sade:   230
    Fremling, emedan om detta du mig tillspörjer och forskar,
    Tör väl fordom vårt hus otadeligt varit och äfven
    Rikt, sålänge ännu här hemma den mannen fördröjde.
    Nu helt annat beslöts af Gudar, som stämpla oss ofärd,
    Hvilka ha honom gjort mer hänförsvunnen än alla           235
    Menskor; ty vore han död, jag skulle så mycket ej grämas,
    Om han i Troers land aflidit bland vapenkamrater,
    Eller 1 vännernas händer, enär han kriget beslutit:
    Skulle åtminstone då Achaierne honom en grafvård
    Gjort, och sin son stor ära för kommande tider han vunnit.  240
    Nu på ett snöpligt sätt Harpyierna roffade honom;
    Oomtald, hänsvunnen, han dog, men smärtor och jemmer
    Lemnade mig; dock nu jag ej honom suckande sörjer
    Endast; gudarne hafva mig gjort ock andra bekymmer.
    Ty de ädlingar alla, som ega på öarna välde,              245
    Uppå Dulichion, Sama, och skogbevexta Zakynthos,
    Äfven samtlige de, som på klippiga Ithaka herrska,
    Desse för mor min fjesa, och bringa oss alla på kneken.
    Hon afsäger sig ej det skändliga giftet, och gitter
    Slut ej göra härpå; mellertid de, frossande slösa         250
    Gods mitt; snarligen äfven mig sjelf de skola föröda.

    Honom talade till, misstyckande, Pallas Athene:
    Ack, visst hade du mycket behof af Odysseus, den fjerran
    Stadde, som händer lade uppå de friare fräcka
    Ty om han, hemländ nu, i farstudörren derborta            255
    Stode, försedd med hjelm och med sköld, samt lansarna tvenne,
    Sådan ännu, som jag tillförene skådade honom,
    Sig förnöjande hemma hos oss, och tömmande bägarn,
    När han från Ilos, Mermeros' son, från Ephyra lände;
    Ty jemväl dit reste på snabba galejan Odysseus,           260
    Det mandräpande gift der sökande, att han det måtte
    Ha, för att kopparspetsade pilarna smörja; men han ej
    Gaf, emedan han vördade grannt städs varande gudar;
    Men dock fader min gaf; ty han högligen älskade honom:
    Skulle nu slik uppträda bland friareskaran Odysseus,      265
    Alle de visst snardöde och olycksfriare vore.
    Men i sanning ju detta beror af gudarnes allmakt,
    Om, hemkommen igen, han hämnas skall eller icke,
    Uti de egna salar, och dig jag bjuder betänka,
    Huru du må ur salen sin kos de friare drifva.             270
    Vill du mig nu åhöra, och akt mig gifva på orden?
    Sedan i morgon du kallat Achaiska drottarna samman,
    Ordet förkunna dem alla, och gudarna vare dig vittnen.
    Friarne bjud, att sprida sig hän, hvaren till sitt eget.
    Mor din bjud, i fall nu dess hug ilfänas på gifte,        275
    Att till fadrens palats hon gånge, den mäktiges, åter.
    Der de bröllopet sen tillställa, och ordna en hemgift,
    Särdeles rik, som det höfves att följa den älskade dottren.
    Men dig sjelf jag vill ge ett grundeligt råd, om du tar det.
    Rusta med tjugu roddare ut den bästa galeja,              280
    Res så att efterspörja din far, som längesen bortfor;
    Om bland dödliga någon berättar dig, eller du hörer
    Sägn från Zeus, som mest åt menskorna tidender bringar.
    Först då till Pylos res, och dig der hos Nestor befråga,
    Till Menelaos dän, blondlockiga kongen i Sparta.          285
    Ty bland kopparklädda Achaierna sednast han hemkom.
    Skulle du nu förnimma din faders lif och hans hemkomst,
    Sannerlig, fast ock qvald, du ännu ett år må förbida.
    Men om höra du får, att han dött och mera ej finnes,
    Vändande sedan igen till älskade fädernejorden,           290
    Må du åt honom resa en vård, och begå hans begrafning
    Rikligen, såsom det höfs, och din mor bortge åt en annan.
    Men när detta du nu fullbordat hafver och verkställt,
    Sedan bör du betänka uti ditt sinne och hjerta,
    Huru i eget palats du friarna ändtligen månde             295
    Döda, med list, eller ock offentligt; du icke behöfver
    Bära dig åt som ett barn, ty du är ej mer vid de åren.
    Eller hörde du ej, hvad pris vann bålde Orestes
    Inför menniskor alla, då fadermördarn han dräpit,
    Den sveksinnte Aigisthos, som dräpte hans ryktbara fader?  300
    Älskade, du också (ty jag ser dig så stor och så vacker,)
    Tapper var, att hos sednaste slägt man godt om dig säge.
    Men jag redan begifver mig nu till snabba galejan,
    Och till de mina, kanske för väntningen högligen ledsna.
    Sörj för dig sjelf, och noga betänk de orden jag talat.   305
    Henne Telemachos nu, den förståndige, svarte, och sade:
    Gästvän, sannerlig du välmenande detta har talat,
    Liksom en far till sin son, och aldrig jag glömmer de orden.
    Men dröj qvar nu likväl, änskönt du så brådskar med resan,
    Att du må bada dig först, samt sen, förnöjande sinnet,    310
    Återgå med en skänk till galejan, gladlig i hjertat,
    Kostlig, ooh vacker skänk, som städs skall vara dig skåpskatt,
    Gifven af mig; så plär gästvännen gifva sin gästvän.

    Honom svarade sen klarögda gudinnan Athene:
    Mig ej må du numer qvarhålla, som trängtar att resa.      315
    Men den skänk, ditt hjerta befaller dig åt mig förära,
    Den må du ge, att jag hem får föra, då åter jag kommer,
    Tagande ock en särdeles grann, som förtjenar dig motskänk.

    Hon, när detta hon talt, bortgick, klarögda Athene,
    Och som en fågel åt himmelen flög, men honom i hjertat    320
    Lade hon styrka och mod, påminnande honom om fadren
    Mera än nånsin förut; han, varsnande detta med tanken,
    Häpnade mycket, förty han en gud det anade vara.
    Genast till friarna nu sig begaf gudliknande mannen.
    Qvad för dessa då just högröstige sångarn; med tystnad    325
    Sutto de alle, och hörde; han sjöng om Achaiernas bittra
    Hemfärd, hvilken från Troia beredde dem Pallas Athene.
    Men der i högan loft åhörde gudomliga sången
    Drotten Ikarios' dotter, förståndiga Penelopeia.
    Gick så utföre trappan, den höga, i egna palatset,        330
    Icke allena, tillika också två tärnor nu följde.
    När hon till friarne sen nedstigit, den ädla bland qvinnor,
    Stod hon invid dörrposten utaf välbyggda palatset,
    Sänkande för sitt anlete ned den glänsande slöjan.
    Men vid hvardera sidan der stod en beskedelig tärna.      335
    Gråtande sedan talte hon till den gudomliga sångarn:

    Phemios, visst mång andra de dödliges fröjder du känner,
    Gudars och mennniskors verk, som sångarne herrligen qväda,
    Något af dessa besjung, här sittande, men de med tystnad
    Vinet dricke; du må upphöra med denna så sorgsna          340
    Sången, hvilken hos mig mitt hjerta i bröstet beständigt
    Qväljer; ty mig mest träffat den oförglömliga smärtan.
    Sådant hufvud jag saknar, och alltid minns jag min make,
    Honom, hvars ära sig vida i Hellas spridt och i Argos.

    Henne Telemachos nu, den förståndige, svarte, och sade:   345
    Moder min, hvi misstycker du dock, att den älsklige sångarn
    Roar oss, efter hjertats behag? Ju ej sångarne äro
    Saker, men Zeus törhända ar saker, som sådant förunnar
    Åt påhittiga män, som honom det täckes åt hvarje.
    Denne förtycke man ej, att han sjunger de Danaers ofärd.  350
    Ty den visan menskorne mer än andra beprisa,
    Hvilken uti åhörarnes krets af alla är nyast.
    Derför ditt hjerta och sinne också uthärde att höra.
    Ej är Odysseus den ende som hemkomstdagen förlorat;
    Fingo sin bane ju ock mång andre männer, vid Troia.       355
    Utan gå till ditt rum, och sköt der ärender dina,
    Väfstoln äfvensom sländan, och tjenarinnorna mana
    Att till arbete gå; om saken må männerne vårda
    Samtlige; mest dock jag. Ty min är makten i huset.

    Hon förvånad och stum till kammaren åter begaf sig;       360
    Ty sin sons förståndiga tal hon lade på hjertat.
    Men när i högan loft hon hade med tärnorna stigit,
    Sedan begret hon Odysseus, den älskade maken, tills ljuflig
    Sömn på dess ögonlock nedsändes af Pallas Athene.
    Friarne stojade qvar i de dunklande salarna hurtigt,      365
    Önskande samtlige få vid henne hvila i bädden.
    Men Telemachos nu, den förståndige, började orda.

    Friare J till min mor, som egen en trottsande fräckhet;
    Låtom oss gästande här förlusta oss, utan ett sådant
    Stoj; ty herrligt ju är det minsann, att höra en ståtlig  370
    Sångare, som han är, med gudarne lik till sin stämma.
    Tidigt på morgonstunden vi måga oss samla till rådslag
    Alle, att jag rent ut får eder min mening förkunna,
    Att ur salarna gå; tillställen er andra kalaser,
    Frätande eget gods, omvexlande en med den andra.          375
    Om er detta likväl mer önskeligt synes och bättre
    Vara, att utan straff en endes besittning förstöra,
    Öden! men jag anropar de alltid varande gudar.
    Om Zeus unnar en gång att lika må gäldas med lika,
    Visst ohämnade skolen J då i palatset förstöras.          380

    Talade så, och de alle med tändren i läpparna beto,
    Öfver Telemachos undrande sig, att dristigt han ordat.

    Honom talte då till Antinoos, son af Eupeithes:
    Gudarne sjelfve, minsann, dig undervisa, att vara
    Så storordig i mun, och prata så särdeles dristigt.       385
    Måtto dig aldrig på Ithakas ö till konung Kronion
    Göra, ehuru hon är, med födslen, ditt fädernerike.

    Honom Telemachos nu, den förståndige svarte, och sade:
    Blir du, Antinoos ond kanhända för det jag nu säger?
    Visst jag Ithaka ville, om Zeus det unnar, besitta.       390
    Eller menar du det bland menniskor vara ett lappri?
    Sannerlig är det ej slemt, att herrska; ty kongars palats strax
    Blir förmöget, de sjelfve också mer hedras än andre.
    Men här finnas likväl de Achaiers kongar i sanning
    Andre månge på Ithakas ö, så unge som gamle.              395
    Någon af dem det hafve, när bortdött ädle Odysseus.
    Jag likväl i vårt hus skall herre vara, och herre
    Öfver de slafvar, som fångat åt mig den ädle Odysseus.

    Honom Polybos' son, Eurymachos, svarte, och sade:
    Detta, Telemachos, ligger helt visst i gudarnes händer    400
    Ho som på Ithakas ö skall vara Achaiernes konung;
    Sjelf må likväl du besitta ditt gods och beherrska ditt husfolk.
    Ej tör komma en man, som emot din vilja, med våldsmakt
    Godset rycker dig från, så länge vår ö är befolkad.
    Men, kärälsklige, dig jag vill tillspörja om gästen,      405
    Hvadan den mannen kom, och ifrån hvad land han sig skryter
    Vara, och hvar hans fädernejord, hans stämma befinnes.
    Bragte han tidender med om din hem anländande fader,
    Eller kom han väl hit, för att egna ärender sköta?
    Huru han hastigt ilade bort, och ej veta, hvem han var    410
    Fingo vi; dock han ej var till anletet lik med en usling.

    Honom Telemachos nu, den förståndige svarte, och sade:
    Sannerlig, Eurymachos, är förlorad min faders igenkomst;
    Derför jag litar ej mera på tidender, hvadan de komme,
    Icke jag aktar heller de gudabeslut, som min moder        415
    Kallande siaren hit i vår sal, utforskar af honom.
    Denne åt mig från Taphos är länd, en fäderne gästvän,
    Mentes, den insigtsfulle Anchialos' son han sig skryter
    Vara, och konung han är för de Taphiska roddarebussar.

    Så nu Telemachos; dock i sin själ han kände gudinnan.     420
    Men de som vändt sitt sinne till dansen och tjusande sången,
    Än förlustade sig, af bidande aftonens påkomst.
    Än de förlustade sig, då den mörka aftonen påkom.
    Sen för att sofva en hvar sig ändtligen makade hemåt.
    Och Telemachos dit, der på prydliga gården hans sofrum    425
    Högt var byggdt, på ett välkringskådeligt ställe, begaf sig
    Sjelf till hvila också, omvälfvande mycket i sinnet.
    Bar så för honom brinnande bloss den aktsama tärnan
    Eurykleia, en dotter till Ops, sjelf son till Peisenor,
    Henne med egna medel sig köpt tillförne Laertes;          430
    Tjugu oxar han gaf, och hon var då blomstrande flicka.
    Likt med sin värda gemål i palatset han aktade henne,
    Delande aldrig dess bädd, och sin makas vrede så undvek.
    Hon medförde de brinnande bloss, hon älskade honom
    Ock bland tärnorna mest, och fostrat honom som liten.     435
    Nu han öppnade dörrn till det välinrättade sofrum,
    Satte på sängen sig sen, afklädande tröjan, den fina,
    Hvilken han lade i händren utaf klokrådiga gumman.
    Men då hon tröjan ihop väl vecklat och putsat behörigt,
    Hängde hon henne på knaggen bredvid den pyntade sängen,   440
    Gick så utur sofrummet, och drog till dörren med silfver
    Ringen, och sen med dess rem framsköt hon rigeln derjemte.
    Der helnattligt han nu, omtäckt med de finaste fårskinn,
    Välfde den färd i sitt sinne, som honom i Athene bebådat.




Andra Sången.


    När sig nu viste den tidiga, rosenfingrade Eos,
    Hastade upp från sin bädd den älskade son af Odysseus,
    Sedan han klädt sig; och hängde det eggiga svärdet på axeln,
    Bandt ock sköna sandaler inunder de fylliga föttren,
    Och ur sitt sofrum gick, jemlik med en gud till att påse.   5
    Och så befallte han sen högljudda herolderna genast
    Kalla till sammankomst hårfagra Achaierna alla.
    Desse kallade alla, som ock församlades skyndsamt.
    Men då de samlats redan, och hopförsamlade voro,
    Sjelf han till samlingen gick, med kopparlansen i handen.  10
    Icke allena, ty två snabbfotade stöfvare följde.
    Och ett gudomligt behag utgöt nu på honom Athene.
    Häpnande såg det samtlige folk till den kommandes möte.
    Satte sig ned på sin faders stol, och Geronterne veko.
    Då begynte nu först friborne Aigyptios orda,               15
    Han som af ålderdomen var krökt, och visste så mycket.
    Ock hans älskade son åtföljt gudmaken Odysseus
    Till skönfåliga Ilion hän på de håldade skeppen,
    Antiphos, kämpen; men honom ihjelslog vilde Kyklopen
    Uti den håliga grottan, och redde sin yttersta qvällsvard.  20
    Ock tre andra han hade; bland friarne en af den dvaldes,
    Eurynomos, men två städs blefvo vid fädernegodset.
    Dock han, sorgsen och klagande, ej sin Antiphos glömde,
    Men tårgjutande nu tog ordet, och började tala:

    Hören mig nu Ithakesier ock, hvad jag ämnar er säga!       25
    Aldrig skedde hos oss rådsamling ännu eller möte,
    Alltsen den ädle Odysseus på hålkade skeppena bortfor.
    Ho har oss nu församlat? och hvem påkom så behofvet,
    Hvem bland de yngre män, eller dem som gamlare äro?
    Monne han tidender hört om en hit antågande krigshär,      30
    Dem han oss sade bestämdt, då han förr dem skulle förnummit,
    Eller monne han annan en folksak nämner och kungör?
    Redlig synes han mig; allt godt han njute! åt honom
    Zeus fullborde till lyckeligt slut, hvad han välfver i sinnet!

    Sade. Odysseus' älskade son järtecknet förnöjde,           35
    Och han ej mera länge der satt, men längtade tala.
    Steg så i samlingens midt, och spiran i handen emottog
    Af Peisenor, herolden, som visste de klokaste tankar.
    Först derefter han vände sitt tal till den gamle och sade:

    Gamle, den man är ej fjerran, -- du sjelf det genast förnimmer. -- 40
    Just jag folket församlat, och mest påkommer mig ängslan.
    Jag ej tidender hört om en hit antågande krigshär,
    Dem jag er sade bestämdt, då jag förr dem skulle förnummit,
    Icke heller jag annan en folksak nämner ooh kungör;
    Utan min egen sak, som mig ofärd störtat i huset,          45
    Tvefaldt; dels har jag mist den ädlaste far, som bland eder
    Samtliga förr var kong, och likt en fader så godsinnt.
    Nu en vida större också, som snarligt alldeles
    Hela mitt hus förstör, och i grund föröder min lifskost.
    In på min mor, som ej vill, en skara af friare tränger,    50
    Söner till sådane män, som härstäds äro de högste.
    Desse rädas att gå till Ikarios' hus, som är hennes
    Fader, att sjelf sin dotter han må utstyra med brudskänk,
    Gifva åt hvem han vill, som väl tacknämelig kommer.
    Men nu i vårt hus städs qvardröjande dagar på dagar,       55
    Slaktande åt sig oxar ooh får och getterna feta,
    Hålla de friska kalas, och dricka det glödande vinet
    Skamlöst; mycket föröds mellertid, ty ej finnes en sådan
    Man, som Odysseus var, ofärden att värja från huset.
    Vi ej äro i stånd att värja, och äfven härefter            60
    Räddningslöse vi bli, och ej alls förstå oss på nödvärn.
    Sannerlig slikt afvärjde jag visst, om jag egde förmåga.
    Outhärdliga äro de saker som hända, och nesligt
    Hela mitt hus förstörts; ock borde ni sjelfve förargas,
    Borde blygas också för de här kringboende menskor,         65
    Hvilka bo häromkring; och frukten för gudarnes vrede;
    Kanske, förgrymmade, än de näpsa så skamliga dater.
    Både jag Zeus anropar, Olympiern, äfvensom Themis,
    Hvilken männernes råd upplöser, och bringar att sitta;
    Hejden er, vänner, och låten af hårda bekymret mig ensam   70
    Täras, såframt ej nånsin min far, den ädle Odysseus,
    Har, fiendtelig, gjort fotbrynjta Achaierna illa,
    Och J, gäldande det, fiendtlige, illa mig gören,
    Eggande dessa; för mig långt bättre det vore i sanning,
    Att J skullen förtära båd boskapshjordar och skåpskatt.    75
    Ja, om J allt uppåten, kanske snart följde betalning.
    Ty vi skulle i staden med ord ombedja så länge,
    Återfordrande vårt, tills allt oss gifvits tillbaka.
    Nu obotliga smärtor J mig inkasten i själen.

    Så han talade vred, och till marken slängde sin spira,     80
    Gjutande tårar; det samtliga folk betogs då af miskund.
    Tego så alle de andre dervid; ej vågade någon
    Endaste gifva Telemachos svar i kränkande ordalag;
    Men Antinoos honom allen' tilltalte och svarte:

    Hvad har du sagt, högpratig Telemachos, dristig i stormod,  85
    Skymfande oss! Du ville väl nog påstänka oss skamfläck.
    Saker äro dig dock de Achaiiske friare icke,
    Utan din mor, som mer än en ann förstår sig på ränker.
    Ty nu redan ha tre år gått, snart vandrar det fjerde,
    Sen den tid i Achaiernas bröst hon hjertat bedårar.        90
    Hopp hon åt hvar man skänker, och sig utlofvar åt alla,
    Sändande tidender; dock helt annat dess sinne begrundar.
    Så bland öfriga svek hon fejande stämplade äfven:
    Sättande upp stor väf, hon i kammaren började väfva,
    Fin, oändeligt lång, och till oss hon talte och sade:      95
    Svenner, som frien till mig, då den ädle Odysseus nu hängått,
    Biden på bröllopet än, och brådsken ej, tills jag en likskrud
    Färdig arbetat, -- att icke mitt garn må ödas förgäfves, --
    Åt friborne Laertes, tilldess, att honom omsider
    Tager den långutsträckande döds förderfliga öde.          100
    Att ej i landet på mig Achaiinnorna måga förargas,
    Om han förutan täckelse låge, som egde så mycket.
    Så hon talte, hos oss manhaftige hjertat bevektes.
    Visserlig väfde hon nu om dagen på väfven, den stora,
    Men om nättren den rispade opp, då hon facklorna framsatt.  105
    Så hon i tre år svek oss med list, och bedrog de Achaier;
    Men när fjerde året nu kom, och tiderna kommit,
    Sade oss då bland tärnorna en, som grannligen visste,
    Och vi träffade henne, som rispade herrliga väfven.
    Så hon slutade den, fast alls ej villig, af nödtvång.     110
    Dig ge friarne detta till svar, att väl du må veta
    Sjelf i din egen själ, och Achaierne alle må veta:
    Skicka din moder hän, och befall att till make hon tager
    Honom, som fadren befaller, och som ock henne behagar.
    Men om hon lång tid än utledsnar Achaiernas söner,        115
    Välfvande sådant i sinnet, som rikligt förlänat Athene,
    Fyndigt vett, och derhos förträffliga slöjdernas insigt,
    Svek derjemte, som aldrig vi hört om en bland de fordna,
    Som, skönflätiga, här tillförene bott i Achaia,
    Tyro, och Alkmene, eller ock skönflätig Mykene:           120
    Ingen enda af dem de finter som Penelopeia
    Visste; men denna likväl sig ej till fromma hon uttänkt.
    Ty de skola din kost och ditt gods så länge förtära,
    Som hon blifver vid detta beslut, det säkert en gud har
    Henne i sinnet laggt. Sig sjelf stor ära måhända          125
    Gör hon, men dig helt säkert förlust af mången besittning.
    Vi ej hem oss begifva, och annorstädes ej heller,
    Innan hon gift sig med den af Achaierna, hvilken hon tycker.

    Honom Telemachos nu, den förståndige svarte och sade:
    Ej, Antinoos, höfves, med våld utjaga ur huset            130

    Henne som födt mig, och fostrat; må far min i fremmande länder
    Dött eller lefva; mig blefve det svårt, att Ikarios gälda
    Drygt, om sjelf jag min mor med berådt mod jagade hädan.
    Ty af dess fader jag ondt får lida, och annat en gudom
    Sänder, enär min mor de bistra Erinnyer beder,            135
    Gående bort ur huset, och hämd från menniskor skall mig
    Drabba; och derföre jag ej nånsin det ordet bebådar.
    Men om själen hos eder besitter den minsta försynthet,
    Gån mig ur salarna hän, tillställen er andra kalaser,
    Frätande eget gods, omvexlande en med den andra.          140
    Skulle et detta likväl mer önskeligt synas och bättre
    Vara, att utan straff en endes besittning förstöra,
    Öden! men jag anropar de alltid varande gudar.
    Om Zeus unnar en gång att lika må gäldas med lika,
    Visst ohämnade skolen J då i palatset förstöras.          145

    Så Telemachos. Örnar ett par den dundrande gud Zeus
    Honom sände att flyga från högsta toppen af berget.
    Desse flögo nu båda en stund, så snabba som vinden,
    Spännande vingarna ut, helt nära den ene den andra.
    Men då de kommit till midten utaf mångpratiga rådet,      150
    Svängde de sig omkring, och slogo med väldiga vingar,
    Sågo på allas hufvuden ned, och förkunnade ofärd.
    Och då med klorna de kinderna slitit, och halsarna sönder,
    Skyndade båda åt höger igenom husen och staden.
    Öfver fåglarna häpnade alla, såsnart de dem varsnat,      155
    Samt i sin själ omvälfde, hvad nu väl komme att hända.
    Men då talte bland dem Halitherses, den åldrige ädling,
    Mastors son; ty allen' samtidiga menskor han vida
    Vann, båd att fåglar känna, och gudaorakel förtälja.
    Han välmenande ordade då bland dessa, och sade:           160

    Hören mig nu, Ithakesier, ock, hvad jag ärnar er säga!
    Men för friarne mest jag detta förkunnar och talar;
    Ty dem välfves en stor olycka; ty icke Odysseus
    Länge numer från vännerna är, men vistas helt nära
    Någonstädes, och reder demhär förderfvet och döden        165
    Samtligen; men mång andra också olycka skall drabba,
    Oss som på Ithaka bo, det välkringskådliga; derför
    Grannt påtänken, hur vi dem hejde; sig sjelfve de äfven

    Hejda måga; ty det väl blifver dem snarligt det bästa.
    Ty ej skall jag er spå, okunnig, men väl erfaren;         170
    Ty jag menar, att allt fullbordats äfven åt honom,
    Såsom jag ordade då, när Argeierne hädan till Troia
    Samtlige foro åstad, och med dem mångråde Odysseus.
    Sade, att sen mång qval han lidit, och alla kamrater
    Mistat, skull' på det tjugunde år han, af ingen igenkänd,  175
    Komma till hemmet igen; det allt fullbordadt nu varder.

    Honom Polybos' son, Eurymachos, svarte, och sade:
    Gubbe, välan, du kan just prophetera för piltarna dina,
    Vandrande hem, att ej dem olycka må framdeles drabba.
    Vida bättre än du spår jag hvad detta beträffar.          180
    Fåglar, många till tal, visst solens strålar inunder
    Vanka, ej alla likväl betydelsefulla. Odysseus
    Dog långt borta; o, att du också din bane med honom
    Undfått! icke du skulle då särdeles prata orakel,
    Och ej egga Telemachos, nog dessutom förtretad,           185
    Bidande någon skänk åt ditt hus, i fall han den gåfve.
    Men jag säger dig rent; ock skall fullbordadt det varda:
    Om du den yngre man, du som vet båd gammalt och mycket,
    Öfvertalar med listiga ord, och retar till vrede,
    Honom sjelf till en början det blifver ganska förderfligt;  190
    Dock han, för desses skull, ej gitter det ringaste göra.
    Men dig, gubbe, vi plikt pålägge, och den skall du gälda,
    Harmsen i själen minsann, och tung dig varder förtreten.
    Inför alla jag vill Telemachos gifva det rådet:
    Bjude han mor sin vända igen till fädernehuset.           195
    Der de bröllopet sen tillställa, och ordna en hemgift,
    Rikeligt stor, som höfs medfölja den älskade dottren.
    Ty jag menar att förr Achaiernes söner ej afstå
    Från nog ledt frieri; vi rädas allsicke för någon,
    Ej för Telemachos, fastän han är storpratig, kantänka,    200
    Ej om oraklet vi heller oss bry, det du för oss, gubbe,
    Sladdrar i vädret, och mera ännu åsamkar dig hätskhet.
    Godset snöpligen än skall täras, och nånsin ej undfås
    Vedergällning, så länge som hon för Achaierna skjuter
    Bröllopet upp; men vi, afbidande dagar på dagar           205
    Här, för hennes behags skull, täfle, och icke till andra
    Gå vi, hvilka det vore en hvar tillständigt att äkta.

    Honom Telemachos nu, den förståndige, svarte och sade:
    O du Eurymachos; och J trottsige friare alle,
    Detta ej mer jag beder er om, ej heller förmäler,         210
    Ty ren gudarne veta deraf och alle Achaier.
    Men mig gifven en hurtig galeja och tjugu kamrater,
    Hvilka resan med mig hitåt fullborda och ditåt.
    Ty till Sparta jag nu vill fara och sandiga Pylos,
    Der för att efterspörja min far, som längesen bortfor,    215
    Om bland dödliga någon berättar mig, eller jag hörer
    Sägn från Zeus, som mest åt menskorna tidender bringar.
    Skulle jag nu förnimma min faders lif och hans hemkomst,
    Sannerlig, fast ock qvald, jag ännu ett år vill förbida.
    Men om höra jag får, att han dött och mera ej finnes,     220
    Vändande sedan hem till den älskade fädernejorden,
    Skall jag åt honom resa en vård, och begå hans begrafning
    Rikligen, såsom det höfs, och min mor bortge åt en annan.

    När nu detta han talt, han satte sig ned, och då uppsteg
    Mentor, en vapenbror till den tadelfrie Odysseus,         225
    Hvilken han uppdrog hela sitt hus, då han reste på skeppen,
    Att hörsamma den gamla, och allt orubbadt bevara.
    Han, välmenande, talade då bland dessa, och sade:

    Hören mig nu, Ithakesier, ock, hvad jag ärnar er säga!
    Huld, välsinnad och vänlig numer ej vare en ende          230
    Skepterbärande kong, i sin själ han ej vete hvad rätt är,
    Men städs vare han hård, och orättrådighet öfve.
    Ty ej minnes ju någon numera den ädle Odysseus,
    Bland det folk, som han styrde, och var så huld som en fader.
    Men jag de trottsige friarne ej missunnar det minsta,     235
    Att de föröfva våldsama verk, af idelig vanart.
    Ty de sätta sitt hufvud på spel, och våldsamt förtära
    Drotten Odysseus' hus, och de tro ej att nånsin han kommer.
    Nu jag är vred på det öfriga folk, hurledes J alle
    Sitten så stume, och icke med ord ens agande hejden       240
    Friarne, få till tal mot er, som ären så många.

    Honom Euenors son, Leiokritos, svarte, och sade:
    Mentor, du olycksbringande tok, hvad har du väl ordat,
    Eggande dessa, att oss afspisa? det sannerlig svårt blir,
    Att vid ett gästbud strida emot flertaliga männer.        245
    Ty om Odysseus sjelf, Ithakesiern, äfven igenländ,
    Trottsiga friarne här i sitt hus kalasande funne,
    Och i sitt sinne beslöte att dem ur salen förjaga
    Sannerlig gladde sig ej hans maka, fast mycket hon trånar,
    Åt den komma, men här just finge han snöpelig ända,       250
    Om med flera han stridde; du ej sakenligt har ordat.
    Men nu, välan, kringspriden er folk, en hvar till sitt eget.
    Honom nog Halitherses till resan skyndar och Mentor;
    Vapenbröder ju äro de tu, sen gammalt, åt fadren.
    Dock jag menar, att han, qvarsittande, tidender länge     255
    Bidar på Ithaka; ej fullbordar han nånsin den resan.

    Så han talte, och strax folksamlingen löste derjemte.
    Och de till egna boningar nu kringspridde sig alle,
    Men till Odysseus' hus sig friarne åter begåfvo.

    Gick så Telemachos dän afsides till stranden af hafvet,   260
    Tvättade händren uti grå böljan, och bad till Athene:
    Hör mig, gudinna, o du, som i går påhelsade vårt hus,
    Och som mig bjöd, med galejan, uppå det ruskiga hafvet,
    Resa, att fråga mig före om länge dröjande fadrens
    Hemkomst. Detta nu allt Achaierne söka förhala,           265
    Men dock friarne mest, högmodige utöfver höfvan.

    Så han bedjande talte. Athene nalkades honom,
    Liknande Mentor såväl till gestalt, som äfven till stämma,
    Och hon höjde sin röst, och sade bevingade orden:

    Ej i en framtid blir du, Telemachos, feg eller ovis.      270
    Ja, om i dig är gjutet din faders modiga sinne,
    Är du sådan han var, att ord fullborda och handling,
    Då blir sannerlig icke din färd olyktad och fruktlös.
    Men om du ej till honom är son och Penelopeia,
    Då jag ej tror, att du skall fullborda det som du ämnar.  275
    Ty få söner minsann sin fader lika befinnas;
    Sämre de fleste äro, och få visst bättre än fadren.
    Men då du framdeles ej skall fegsinnt vara och oklok,
    Och dig ej heller Odysseus' förstånd så alldeles lemnat,
    Eger du hopp, att en gång fullborda dessa bedrifter.      280
    Derföre lemna derhän nu friarnes tanke och rådslag,
    Dårarnes, ty rättrådige ej, ej kloke de äro;
    Icke veta de alls af den svarta Kereu och döden,
    Som dem redan är nära, att alle på dagen förödas.
    Dig ej länge skall dröja numer den färd, som du ämnar.    285
    Ty slik är jag i sanning åt dig en fäderne gästvän,
    Som nog snabba galejan skall rusta, och sjelf med dig följa.
    Men du till hemmet gå, och der bland friarna vistas,
    Rusta dig vägkost sedan, och allt lägg varligt i kärlen,
    Vinet i handtagskrukor, och korngryn, märgen hos männer,  290
    I tättslutande skinn; men jag bland folket kamrater
    Skall, välvilliga, dig hopsamla. Galejor väl finnas
    Månge på kringsköljd Ithakas ö, båd nya och gamla.
    Henne, som ståtligast är, jag sjelf bland dessa dig utser.
    Rustade, skyndsamt lägge vi ut på det villande hafvet.    295

    Så nu Athenaie, Zeus' dotter, och länge ej mera
    Dröjde Telemachos qvar, då gudinnans stämma han åhört;
    Utan han gick att förfoga sig hem, i hjertat bedröfvad.
    Fann så de trottsige friarnes hop i salarna åter,
    Flående getter, och skållande svin derjemte på gården.    300
    Antinoos gick leende rakt till Telemachos' möte,
    Hängde sig fast vid hans hand, och talade orden, och sade:

    Telemachos, högpratig, till mod okuflig, ett annat
    Ondt må du ej anstämpla i sinnet med ord eller gerning,
    Utan ät du bara och drick, som äfven tillförne.           305
    Detta dig allt helt visst de Achaier skola förskaffa,
    Både galeja och önskliga män, att snarligt du kommer
    Till gudskyddade Pylos, på sägn om herrliga fadren.

    Honom Telemachos nu, den förståndige, svarte och sade:
    O Antinoos, icke mig höfs, att åt eder, så båla,          310
    Ge, ovillig, kalas, och i maklighet hålla mig munter.
    Är det ej nog, att tillförne J ödden så många af mina
    Herrliga gods, då ännu jag var barn, J giljande männer?
    Nu, då jag redan är stor, och, hörande talet af andra,
    Det uppfattar, och mig ren vexer modet i barmen,          315
    Fresta jag skall, att sända på er olyckliga Kerer,
    Om jag till Pylos far, eller ock blir hemma i landet.
    Ja, jag res, och den färd blir fruktlös ej, som jag omnämnt,
    Res på beting; ty galeja ej jag, ej roddare eger
    Sjelf; så eder i sanning det synts mer båtande vara.      320

    Sade; och drog sin hand ur Antinoos' hand i detsamma
    Lätt, och i huset de giljande män bestyrde om måltid.
    Desse begabbade honom, och yttrade skymfliga orden;
    Så nu mången ibland stortrottsiga svennerna sade:

    Sannerlig öfvertänker oss död Telemachos ifrigt;          325
    Antingen bringar han hjelpare hit från sandiga Pylos,
    Eller från Sparta kanske; ty nu han äflas förskräcligt;
    Eller till Ephyra ock han ärnar, det bördiga landet,
    Resa, i mening att dän lifödande gift med sig hämta,
    Kasta i blandningsskålen, och gå förgöra oss alla.        330

    Annan åter ibland stortrottsiga friarne sade:
    Ho kan veta, om icke han sjelf på det hålkade skeppet,
    Långt från vännerna, dör, kringvankande, liksom Odysseus?
    Så än mer derjemte för oss han ökte besväret.
    Ty först delte vi ju hans samtliga skatter, och sedan     335
    Gåfve åt mor hans huset; och den som henne vill äkta.

    Talte; och han steg ned i sin fars högtakiga, vida
    Sofrum, der båd koppar och guld förvarades högtals,
    Kläder, i kistorna med, och i mängd välluktande olja.
    Kärl med gammalt vin, välsmakeligt, äfven derinne         340
    Stodo, en omängd gudarnes dryck förborgande inom,
    Ställde i rad mot väggen, i händelse drotten Odysseus
    Hem anlände en gång, sen många strapaser han utstått.
    Riglade dörrar, och tätt anpassade, funnos der äfven,
    Dubbla, och hushålsqvinnan derinne båd nätter och dagar   345
    Dvaldes, som högst omhugsamt på allt tog grannligen vara,
    Eurykleia, en dotter till Ops, sjelf son till Peisenor.
    Henne Telemachos då tilltalade, kallad i kammarn:
    Mor min, välan mig vin i handtagskrukorna påfyll,
    Ljufligt, som är näst det välsmakligast, hvilket du gömmer,  350
    Väntande vår olycklige drott, om nånsin han kommer,
    Ädle Odysseus, hem, undsluppen Kerer och döden.
    Tolf må du fylla, och samtliga väl tilltäppa med locken.
    Häll sen uti välsömmade skinn derjemte mig korngryn;
    Tjugu mått må du taga utaf qvarnmalade godset.            355
    Sjelf du det ensam vete, och allt storståtligt bestyres.
    Ty jag i afton ännu det skall afhämta, såsnart som
    Modren stigit ditupp i sitt loft, ock tänker på hvila.
    Ty jag till Sparta begifver mig hän, och till sandiga Pylos,
    Frågande om min fars hemresa, derest jag förnimmer.       360

    Sade. Och Eurykleia, den älskade fostrerskan, storgret,
    Och, sig jemrande, talade hon bevingade orden:

    Hvi har, älskade barn, dig sådan tanke i sinnet
    Kommit? och hvart vill du resa ditut kring vidaste verlden,
    Du kärälsklige, ende? Ty långt från fädernelandet         365
    Ädle Odysseus ändat sitt lif bland fremmande menskor.
    Desse, så snart som du res, upptänka dig sedan din ofärd,
    Att du med list må dödas; och sen allt detta de dela.
    Stanna du qvar, och sitt vid ditt gods; dig icke det anstår,
    Att på den ödsliga sjön ondt lida, och irra omkring der.  370

    Henne Telemachos nu, den förståndige, svarte, och sade:
    Trösta dig, mor! Ej utan en gud är detta beslutet.
    Men mig svär, att ej orda härom för egen min moder,
    Förrn då den elfte dag eller tolfte redan är kommen,
    Eller hon sjelf mig längtar att se, och hört att jag bortrest;  375
    Att hon ej gråtande må förderfva sitt anlet, det fagra.

    Talte; och gudarnes vigtiga ed den gamle nu afgaf.
    Men såsnart som hon svurit, och eden lyktat behörigt,
    Fyllde hon strax deruppå i handtagskrukorna vinet,
    Hällde åt honom uti välsömmade skinnen ock korngryn.      380
    In i rummen Telemachos gick, och med friarne dvaldes.

    Annat begrundade då klarögda gudinnan, Athene.
    Hon, Telemachos lik, öfverallt i staden omkringgick,
    Och, vid hvarendaste man qvarstannande, talade ordet;
    Bjöd dem om aftonen sig församla på snabba galejan.       385
    Nu hon af Phronios' herrliga son, Noemon, begärte
    Snabba galejan, men han ock villig detta sig påtog.

    Ned gick solen, och stigarne ren förskuggades alla.
    Och då drog hon i sjön den snabba galejan, och allsköns
    Redskap lade deri, som toftade skepp med sig föra.        390
    Bragte så ytterst i hamnen; omkring de hurtige bussar
    Mangrannt samlade sig; och en hvar uppmante gudinnan.

    Annat begrundade då klarögda gudinnan Athene,
    Och till Odysseus' hus, den herrliges, ställde hon kosan.
    Derstäds gjöt hon en ljufvelig sömn på giljareskaran,     395
    Dref dem rusiga kring, och bägrarna stötte ur händren.
    Desse i sta'n hit och dit att sofva sig skyndade; länge
    Mer de ej dröjde; på ögonens lock nedföll dem ju sömnen.
    Men till Telemachos talade nu klarögda Athene,
    Kallande honom ut ur de boningsbeqvämliga salar,          400
    Mentor lik, ej blott till gestalt, men äfven till stämma:

    O Telemachos, redan för dig fotbrynjte kamrater
    Sitta vid årorna, bidande af din snarliga ankomst.
    Låtom oss derföre gå, och ej mer uppskjuta vår resa.

    Talade så; och förut nu vandrade Pallas Athene            405
    Skyndsamt; sen han följde också gudinnan i spåren.
    Men såsnart nu desse till sjön anländt och galejan,
    Funno på stranden de ren skönlockiga resekamrater.
    Dem Telemachos' heliga kraft tilltalade äfven:

    Kommen, vänner, och hit vägkosten låtom oss bringa!       410
    Allt är i salen tillreds, men mor min vet ej det minsta,
    Ej tjenarinnornas hop; blott en om saken har kunskap.

    Talade så, och förde dem an; de följde tillika.
    De nedburo då allt, och uti vältoftig galeja
    Lade på sådant sätt, som Odysseus' son dem befallte.      415
    Steg nu Telemachos sedan ombord, och Athene förutgick,
[...]
    Hvilken mot spjutet ej höll, men spetsen sig trängde igenom;
    Stupad dunkade han, och hans vapen de klungo på honom.
    På förkämparna sprang Odysseus och den lysande sonen,     525
    Huggande kring sig med svärd och med tvesidsbettiga kastspjut.
    Och nu skulle de alla förödt, och berövat dem hemkomst,
    Om ej Athenaie, Zeus', aigisbärarens, dotter,
    Hade ljudligen ropt, och samtliga männerna hejdat:

    O Ithakesier, hejden er nu från förderfliga kriget,       530
    Att blodflöde förutan ni må skyndsamligen skiljas.

    Så Athenaie, och strax blek rädsla betog då dem alla,
    Och ur de fruktandes händer sin kos bortflögo gevären,
    När gudinnan höjde sin röst, samt föllo på jorden;
    Men de sjelfve till stan hänilade, önskande räddning.     535
    Hiskligt skriade till mångpröfvade, ädle Odysseus,
    Och framrusade krum, liksom högflygande örnen.
    Då affärdade ock Kronides sin flammiga ljungeld,
    Hvilken störtade ned framför klarögda gudinnan.
    Då till Odysseus talte också klarögda Athene:             540

    O zeusborne Laertiades, mångsluge Odysseus,
    Hejda dig, sluta nu striden utaf samlottiga kriget,
    Att ej må bli Kronides, viddundraren Zeus på dig vredgad.

    Så Athenaie; och han strax lydde, och gladdes i sinnet.
    Men förbund deruppå dem båda emellan bestyrde             545
    Pallas Athenaie, Zeus', aigisbärarens, dotter,
    Mentor lik till kroppen såväl som äfven till rösten.

            Slut.









        
            *** END OF THE PROJECT GUTENBERG EBOOK ODYSSEIA ***
        

    

Updated editions will replace the previous one—the old editions will
be renamed.

Creating the works from print editions not protected by U.S. copyright
law means that no one owns a United States copyright in these works,
so the Foundation (and you!) can copy and distribute it in the United
States without permission and without paying copyright
royalties. Special rules, set forth in the General Terms of Use part
of this license, apply to copying and distributing Project
Gutenberg™ electronic works to protect the PROJECT GUTENBERG™
concept and trademark. Project Gutenberg is a registered trademark,
and may not be used if you charge for an eBook, except by following
the terms of the trademark license, including paying royalties for use
of the Project Gutenberg trademark. If you do not charge anything for
copies of this eBook, complying with the trademark license is very
easy. You may use this eBook for nearly any purpose such as creation
of derivative works, reports, performances and research. Project
Gutenberg eBooks may be modified and printed and given away—you may
do practically ANYTHING in the United States with eBooks not protected
by U.S. copyright law. Redistribution is subject to the trademark
license, especially commercial redistribution.


START: FULL LICENSE

THE FULL PROJECT GUTENBERG LICENSE

PLEASE READ THIS BEFORE YOU DISTRIBUTE OR USE THIS WORK

To protect the Project Gutenberg™ mission of promoting the free
distribution of electronic works, by using or distributing this work
(or any other work associated in any way with the phrase “Project
Gutenberg”), you agree to comply with all the terms of the Full
Project Gutenberg™ License available with this file or online at
www.gutenberg.org/license.

Section 1. General Terms of Use and Redistributing Project Gutenberg™
electronic works

1.A. By reading or using any part of this Project Gutenberg™
electronic work, you indicate that you have read, understand, agree to
and accept all the terms of this license and intellectual property
(trademark/copyright) agreement. If you do not agree to abide by all
the terms of this agreement, you must cease using and return or
destroy all copies of Project Gutenberg™ electronic works in your
possession. If you paid a fee for obtaining a copy of or access to a
Project Gutenberg™ electronic work and you do not agree to be bound
by the terms of this agreement, you may obtain a refund from the person
or entity to whom you paid the fee as set forth in paragraph 1.E.8.

1.B. “Project Gutenberg” is a registered trademark. It may only be
used on or associated in any way with an electronic work by people who
agree to be bound by the terms of this agreement. There are a few
things that you can do with most Project Gutenberg™ electronic works
even without complying with the full terms of this agreement. See
paragraph 1.C below. There are a lot of things you can do with Project
Gutenberg™ electronic works if you follow the terms of this
agreement and help preserve free future access to Project Gutenberg™
electronic works. See paragraph 1.E below.

1.C. The Project Gutenberg Literary Archive Foundation (“the
Foundation” or PGLAF), owns a compilation copyright in the collection
of Project Gutenberg™ electronic works. Nearly all the individual
works in the collection are in the public domain in the United
States. If an individual work is unprotected by copyright law in the
United States and you are located in the United States, we do not
claim a right to prevent you from copying, distributing, performing,
displaying or creating derivative works based on the work as long as
all references to Project Gutenberg are removed. Of course, we hope
that you will support the Project Gutenberg™ mission of promoting
free access to electronic works by freely sharing Project Gutenberg™
works in compliance with the terms of this agreement for keeping the
Project Gutenberg™ name associated with the work. You can easily
comply with the terms of this agreement by keeping this work in the
same format with its attached full Project Gutenberg™ License when
you share it without charge with others.

1.D. The copyright laws of the place where you are located also govern
what you can do with this work. Copyright laws in most countries are
in a constant state of change. If you are outside the United States,
check the laws of your country in addition to the terms of this
agreement before downloading, copying, displaying, performing,
distributing or creating derivative works based on this work or any
other Project Gutenberg™ work. The Foundation makes no
representations concerning the copyright status of any work in any
country other than the United States.

1.E. Unless you have removed all references to Project Gutenberg:

1.E.1. The following sentence, with active links to, or other
immediate access to, the full Project Gutenberg™ License must appear
prominently whenever any copy of a Project Gutenberg™ work (any work
on which the phrase “Project Gutenberg” appears, or with which the
phrase “Project Gutenberg” is associated) is accessed, displayed,
performed, viewed, copied or distributed:

    This eBook is for the use of anyone anywhere in the United States and most
    other parts of the world at no cost and with almost no restrictions
    whatsoever. You may copy it, give it away or re-use it under the terms
    of the Project Gutenberg License included with this eBook or online
    at www.gutenberg.org. If you
    are not located in the United States, you will have to check the laws
    of the country where you are located before using this eBook.
  
1.E.2. If an individual Project Gutenberg™ electronic work is
derived from texts not protected by U.S. copyright law (does not
contain a notice indicating that it is posted with permission of the
copyright holder), the work can be copied and distributed to anyone in
the United States without paying any fees or charges. If you are
redistributing or providing access to a work with the phrase “Project
Gutenberg” associated with or appearing on the work, you must comply
either with the requirements of paragraphs 1.E.1 through 1.E.7 or
obtain permission for the use of the work and the Project Gutenberg™
trademark as set forth in paragraphs 1.E.8 or 1.E.9.

1.E.3. If an individual Project Gutenberg™ electronic work is posted
with the permission of the copyright holder, your use and distribution
must comply with both paragraphs 1.E.1 through 1.E.7 and any
additional terms imposed by the copyright holder. Additional terms
will be linked to the Project Gutenberg™ License for all works
posted with the permission of the copyright holder found at the
beginning of this work.

1.E.4. Do not unlink or detach or remove the full Project Gutenberg™
License terms from this work, or any files containing a part of this
work or any other work associated with Project Gutenberg™.

1.E.5. Do not copy, display, perform, distribute or redistribute this
electronic work, or any part of this electronic work, without
prominently displaying the sentence set forth in paragraph 1.E.1 with
active links or immediate access to the full terms of the Project
Gutenberg™ License.

1.E.6. You may convert to and distribute this work in any binary,
compressed, marked up, nonproprietary or proprietary form, including
any word processing or hypertext form. However, if you provide access
to or distribute copies of a Project Gutenberg™ work in a format
other than “Plain Vanilla ASCII” or other format used in the official
version posted on the official Project Gutenberg™ website
(www.gutenberg.org), you must, at no additional cost, fee or expense
to the user, provide a copy, a means of exporting a copy, or a means
of obtaining a copy upon request, of the work in its original “Plain
Vanilla ASCII” or other form. Any alternate format must include the
full Project Gutenberg™ License as specified in paragraph 1.E.1.

1.E.7. Do not charge a fee for access to, viewing, displaying,
performing, copying or distributing any Project Gutenberg™ works
unless you comply with paragraph 1.E.8 or 1.E.9.

1.E.8. You may charge a reasonable fee for copies of or providing
access to or distributing Project Gutenberg™ electronic works
provided that:

    • You pay a royalty fee of 20% of the gross profits you derive from
        the use of Project Gutenberg™ works calculated using the method
        you already use to calculate your applicable taxes. The fee is owed
        to the owner of the Project Gutenberg™ trademark, but he has
        agreed to donate royalties under this paragraph to the Project
        Gutenberg Literary Archive Foundation. Royalty payments must be paid
        within 60 days following each date on which you prepare (or are
        legally required to prepare) your periodic tax returns. Royalty
        payments should be clearly marked as such and sent to the Project
        Gutenberg Literary Archive Foundation at the address specified in
        Section 4, “Information about donations to the Project Gutenberg
        Literary Archive Foundation.”
    
    • You provide a full refund of any money paid by a user who notifies
        you in writing (or by e-mail) within 30 days of receipt that s/he
        does not agree to the terms of the full Project Gutenberg™
        License. You must require such a user to return or destroy all
        copies of the works possessed in a physical medium and discontinue
        all use of and all access to other copies of Project Gutenberg™
        works.
    
    • You provide, in accordance with paragraph 1.F.3, a full refund of
        any money paid for a work or a replacement copy, if a defect in the
        electronic work is discovered and reported to you within 90 days of
        receipt of the work.
    
    • You comply with all other terms of this agreement for free
        distribution of Project Gutenberg™ works.
    

1.E.9. If you wish to charge a fee or distribute a Project
Gutenberg™ electronic work or group of works on different terms than
are set forth in this agreement, you must obtain permission in writing
from the Project Gutenberg Literary Archive Foundation, the manager of
the Project Gutenberg™ trademark. Contact the Foundation as set
forth in Section 3 below.

1.F.

1.F.1. Project Gutenberg volunteers and employees expend considerable
effort to identify, do copyright research on, transcribe and proofread
works not protected by U.S. copyright law in creating the Project
Gutenberg™ collection. Despite these efforts, Project Gutenberg™
electronic works, and the medium on which they may be stored, may
contain “Defects,” such as, but not limited to, incomplete, inaccurate
or corrupt data, transcription errors, a copyright or other
intellectual property infringement, a defective or damaged disk or
other medium, a computer virus, or computer codes that damage or
cannot be read by your equipment.

1.F.2. LIMITED WARRANTY, DISCLAIMER OF DAMAGES - Except for the “Right
of Replacement or Refund” described in paragraph 1.F.3, the Project
Gutenberg Literary Archive Foundation, the owner of the Project
Gutenberg™ trademark, and any other party distributing a Project
Gutenberg™ electronic work under this agreement, disclaim all
liability to you for damages, costs and expenses, including legal
fees. YOU AGREE THAT YOU HAVE NO REMEDIES FOR NEGLIGENCE, STRICT
LIABILITY, BREACH OF WARRANTY OR BREACH OF CONTRACT EXCEPT THOSE
PROVIDED IN PARAGRAPH 1.F.3. YOU AGREE THAT THE FOUNDATION, THE
TRADEMARK OWNER, AND ANY DISTRIBUTOR UNDER THIS AGREEMENT WILL NOT BE
LIABLE TO YOU FOR ACTUAL, DIRECT, INDIRECT, CONSEQUENTIAL, PUNITIVE OR
INCIDENTAL DAMAGES EVEN IF YOU GIVE NOTICE OF THE POSSIBILITY OF SUCH
DAMAGE.

1.F.3. LIMITED RIGHT OF REPLACEMENT OR REFUND - If you discover a
defect in this electronic work within 90 days of receiving it, you can
receive a refund of the money (if any) you paid for it by sending a
written explanation to the person you received the work from. If you
received the work on a physical medium, you must return the medium
with your written explanation. The person or entity that provided you
with the defective work may elect to provide a replacement copy in
lieu of a refund. If you received the work electronically, the person
or entity providing it to you may choose to give you a second
opportunity to receive the work electronically in lieu of a refund. If
the second copy is also defective, you may demand a refund in writing
without further opportunities to fix the problem.

1.F.4. Except for the limited right of replacement or refund set forth
in paragraph 1.F.3, this work is provided to you ‘AS-IS’, WITH NO
OTHER WARRANTIES OF ANY KIND, EXPRESS OR IMPLIED, INCLUDING BUT NOT
LIMITED TO WARRANTIES OF MERCHANTABILITY OR FITNESS FOR ANY PURPOSE.

1.F.5. Some states do not allow disclaimers of certain implied
warranties or the exclusion or limitation of certain types of
damages. If any disclaimer or limitation set forth in this agreement
violates the law of the state applicable to this agreement, the
agreement shall be interpreted to make the maximum disclaimer or
limitation permitted by the applicable state law. The invalidity or
unenforceability of any provision of this agreement shall not void the
remaining provisions.

1.F.6. INDEMNITY - You agree to indemnify and hold the Foundation, the
trademark owner, any agent or employee of the Foundation, anyone
providing copies of Project Gutenberg™ electronic works in
accordance with this agreement, and any volunteers associated with the
production, promotion and distribution of Project Gutenberg™
electronic works, harmless from all liability, costs and expenses,
including legal fees, that arise directly or indirectly from any of
the following which you do or cause to occur: (a) distribution of this
or any Project Gutenberg™ work, (b) alteration, modification, or
additions or deletions to any Project Gutenberg™ work, and (c) any
Defect you cause.

Section 2. Information about the Mission of Project Gutenberg™

Project Gutenberg™ is synonymous with the free distribution of
electronic works in formats readable by the widest variety of
computers including obsolete, old, middle-aged and new computers. It
exists because of the efforts of hundreds of volunteers and donations
from people in all walks of life.

Volunteers and financial support to provide volunteers with the
assistance they need are critical to reaching Project Gutenberg™’s
goals and ensuring that the Project Gutenberg™ collection will
remain freely available for generations to come. In 2001, the Project
Gutenberg Literary Archive Foundation was created to provide a secure
and permanent future for Project Gutenberg™ and future
generations. To learn more about the Project Gutenberg Literary
Archive Foundation and how your efforts and donations can help, see
Sections 3 and 4 and the Foundation information page at www.gutenberg.org.

Section 3. Information about the Project Gutenberg Literary Archive Foundation

The Project Gutenberg Literary Archive Foundation is a non-profit
501(c)(3) educational corporation organized under the laws of the
state of Mississippi and granted tax exempt status by the Internal
Revenue Service. The Foundation’s EIN or federal tax identification
number is 64-6221541. Contributions to the Project Gutenberg Literary
Archive Foundation are tax deductible to the full extent permitted by
U.S. federal laws and your state’s laws.

The Foundation’s business office is located at 809 North 1500 West,
Salt Lake City, UT 84116, (801) 596-1887. Email contact links and up
to date contact information can be found at the Foundation’s website
and official page at www.gutenberg.org/contact

Section 4. Information about Donations to the Project Gutenberg
Literary Archive Foundation

Project Gutenberg™ depends upon and cannot survive without widespread
public support and donations to carry out its mission of
increasing the number of public domain and licensed works that can be
freely distributed in machine-readable form accessible by the widest
array of equipment including outdated equipment. Many small donations
($1 to $5,000) are particularly important to maintaining tax exempt
status with the IRS.

The Foundation is committed to complying with the laws regulating
charities and charitable donations in all 50 states of the United
States. Compliance requirements are not uniform and it takes a
considerable effort, much paperwork and many fees to meet and keep up
with these requirements. We do not solicit donations in locations
where we have not received written confirmation of compliance. To SEND
DONATIONS or determine the status of compliance for any particular state
visit www.gutenberg.org/donate.

While we cannot and do not solicit contributions from states where we
have not met the solicitation requirements, we know of no prohibition
against accepting unsolicited donations from donors in such states who
approach us with offers to donate.

International donations are gratefully accepted, but we cannot make
any statements concerning tax treatment of donations received from
outside the United States. U.S. laws alone swamp our small staff.

Please check the Project Gutenberg web pages for current donation
methods and addresses. Donations are accepted in a number of other
ways including checks, online payments and credit card donations. To
donate, please visit: www.gutenberg.org/donate.

Section 5. General Information About Project Gutenberg™ electronic works

Professor Michael S. Hart was the originator of the Project
Gutenberg™ concept of a library of electronic works that could be
freely shared with anyone. For forty years, he produced and
distributed Project Gutenberg™ eBooks with only a loose network of
volunteer support.

Project Gutenberg™ eBooks are often created from several printed
editions, all of which are confirmed as not protected by copyright in
the U.S. unless a copyright notice is included. Thus, we do not
necessarily keep eBooks in compliance with any particular paper
edition.

Most people start at our website which has the main PG search
facility: www.gutenberg.org.

This website includes information about Project Gutenberg™,
including how to make donations to the Project Gutenberg Literary
Archive Foundation, how to help produce our new eBooks, and how to
subscribe to our email newsletter to hear about new eBooks.


